/*--------------------------------*- C++ -*----------------------------------*\
  =========                 |
  \\      /  F ield         | OpenFOAM: The Open Source CFD Toolbox
   \\    /   O peration     | Website:  https://openfoam.org
    \\  /    A nd           | Version:  7
     \\/     M anipulation  |
\*---------------------------------------------------------------------------*/
FoamFile
{
    version     2.0;
    format      ascii;
    class       dictionary;
    location    "system";
    object      controlDict;
}
// * * * * * * * * * * * * * * * * * * * * * * * * * * * * * * * * * * * * * //

libs
(
	"$FOAM_CASE/constant/chemkin/libchemkin.so"
	"libchemistryModel_LB_LB_pyJac_LB_CKJac.so"
	"libODE_seulex_LAPACK_seulex_KLU.so"
)

application     chemFoam;

startFrom       startTime;

startTime       0;

stopAt          endTime;

endTime         0.0035;

deltaT          1e-6;

maxDeltaT       1e-4;

adjustTimeStep  off;//on;

writeControl    runTime;//adjustableRunTime;

writeInterval   0.01;

purgeWrite      0;

writeFormat     ascii;

writeCompression off;

timeFormat      general;

timePrecision   6;

runTimeModifiable no;//yes;

DebugSwitches
{
    SolverPerformance   0;
}

// ************************************************************************* //
