/*--------------------------------*- C++ -*----------------------------------*\
| =========                 |                                                 |
| \\      /  F ield         | OpenFOAM: The Open Source CFD Toolbox           |
|  \\    /   O peration     | Version:  2.4.0                                 |
|   \\  /    A nd           | Web:      www.OpenFOAM.org                      |
|    \\/     M anipulation  |                                                 |
\*---------------------------------------------------------------------------*/
FoamFile
{
    version     2.0;
    format      ascii;
    class       dictionary;
    location    "system";
    object      controlDict;
}
// * * * * * * * * * * * * * * * * * * * * * * * * * * * * * * * * * * * * * //

libs
(
	"$FOAM_CASE/constant/chemkin/libchemkin.so"
	"libchemistryModel_LB_LB_pyJac_LB_CKJac.so"
	"libODE_seulex_LAPACK_seulex_KLU.so"
	"$FOAM_CASE/constant/foam_mech/libc_pyjac.so"
)

application     reactingDNS;

startFrom       latestTime;

startTime       0;

stopAt          endTime;//nextWrite;

endTime         0.001;

deltaT          2e-7;

writeControl    timeStep;

writeInterval   250;

purgeWrite      0;

writeFormat     ascii;

writePrecision  6;

writeCompression off;

timeFormat      general;

timePrecision   6;

runTimeModifiable true;

adjustTimeStep  no;

maxCo           0.9;


functions
{
}


// ************************************************************************* //
