/*---------------------------------------------------------------------------*\
| =========                 |                                                 |
| \\      /  F ield         | OpenFOAM: The Open Source CFD Toolbox           |
|  \\    /   O peration     | Version:  1.0                                   |
|   \\  /    A nd           | Web:      http://www.openfoam.org               |
|    \\/     M anipulation  |                                                 |
\*---------------------------------------------------------------------------*/
FoamFile
{
version                         2.0;
format                          ascii;
class                           dictionary;
object                          binaryDiff;
}

// Scheme: transport fitting

N2-N2
{
Diff1	-0.155E+02	;
Diff2	0.346E+01	;
Diff3	-0.240E+00	;
Diff4	0.106E-01	;
}
AR-N2
{
Diff1	-0.165E+02	;
Diff2	0.384E+01	;
Diff3	-0.288E+00	;
Diff4	0.126E-01	;
}
AR-AR
{
Diff1	-0.177E+02	;
Diff2	0.429E+01	;
Diff3	-0.345E+00	;
Diff4	0.151E-01	;
}
H-N2
{
Diff1	-0.171E+02	;
Diff2	0.483E+01	;
Diff3	-0.421E+00	;
Diff4	0.186E-01	;
}
H-AR
{
Diff1	-0.175E+02	;
Diff2	0.496E+01	;
Diff3	-0.429E+00	;
Diff4	0.186E-01	;
}
H-H
{
Diff1	-0.152E+02	;
Diff2	0.438E+01	;
Diff3	-0.356E+00	;
Diff4	0.155E-01	;
}
O-N2
{
Diff1	-0.147E+02	;
Diff2	0.336E+01	;
Diff3	-0.229E+00	;
Diff4	0.102E-01	;
}
O-AR
{
Diff1	-0.158E+02	;
Diff2	0.378E+01	;
Diff3	-0.281E+00	;
Diff4	0.125E-01	;
}
O-H
{
Diff1	-0.153E+02	;
Diff2	0.427E+01	;
Diff3	-0.348E+00	;
Diff4	0.155E-01	;
}
O-O
{
Diff1	-0.136E+02	;
Diff2	0.306E+01	;
Diff3	-0.189E+00	;
Diff4	0.845E-02	;
}
OH-N2
{
Diff1	-0.147E+02	;
Diff2	0.335E+01	;
Diff3	-0.227E+00	;
Diff4	0.101E-01	;
}
OH-AR
{
Diff1	-0.158E+02	;
Diff2	0.376E+01	;
Diff3	-0.280E+00	;
Diff4	0.124E-01	;
}
OH-H
{
Diff1	-0.153E+02	;
Diff2	0.428E+01	;
Diff3	-0.349E+00	;
Diff4	0.155E-01	;
}
OH-O
{
Diff1	-0.136E+02	;
Diff2	0.306E+01	;
Diff3	-0.189E+00	;
Diff4	0.846E-02	;
}
OH-OH
{
Diff1	-0.136E+02	;
Diff2	0.306E+01	;
Diff3	-0.189E+00	;
Diff4	0.845E-02	;
}
HO2-N2
{
Diff1	-0.158E+02	;
Diff2	0.359E+01	;
Diff3	-0.257E+00	;
Diff4	0.114E-01	;
}
HO2-AR
{
Diff1	-0.168E+02	;
Diff2	0.394E+01	;
Diff3	-0.301E+00	;
Diff4	0.132E-01	;
}
HO2-H
{
Diff1	-0.176E+02	;
Diff2	0.505E+01	;
Diff3	-0.450E+00	;
Diff4	0.198E-01	;
}
HO2-O
{
Diff1	-0.151E+02	;
Diff2	0.352E+01	;
Diff3	-0.250E+00	;
Diff4	0.112E-01	;
}
HO2-OH
{
Diff1	-0.151E+02	;
Diff2	0.351E+01	;
Diff3	-0.248E+00	;
Diff4	0.111E-01	;
}
HO2-HO2
{
Diff1	-0.161E+02	;
Diff2	0.369E+01	;
Diff3	-0.269E+00	;
Diff4	0.119E-01	;
}
H2-N2
{
Diff1	-0.127E+02	;
Diff2	0.290E+01	;
Diff3	-0.170E+00	;
Diff4	0.774E-02	;
}
H2-AR
{
Diff1	-0.134E+02	;
Diff2	0.322E+01	;
Diff3	-0.213E+00	;
Diff4	0.963E-02	;
}
H2-H
{
Diff1	-0.120E+02	;
Diff2	0.303E+01	;
Diff3	-0.186E+00	;
Diff4	0.836E-02	;
}
H2-O
{
Diff1	-0.109E+02	;
Diff2	0.231E+01	;
Diff3	-0.874E-01	;
Diff4	0.390E-02	;
}
H2-OH
{
Diff1	-0.109E+02	;
Diff2	0.231E+01	;
Diff3	-0.874E-01	;
Diff4	0.390E-02	;
}
H2-HO2
{
Diff1	-0.127E+02	;
Diff2	0.293E+01	;
Diff3	-0.174E+00	;
Diff4	0.791E-02	;
}
H2-H2
{
Diff1	-0.103E+02	;
Diff2	0.219E+01	;
Diff3	-0.754E-01	;
Diff4	0.351E-02	;
}
H2O-N2
{
Diff1	-0.202E+02	;
Diff2	0.517E+01	;
Diff3	-0.429E+00	;
Diff4	0.175E-01	;
}
H2O-AR
{
Diff1	-0.199E+02	;
Diff2	0.499E+01	;
Diff3	-0.399E+00	;
Diff4	0.159E-01	;
}
H2O-H
{
Diff1	-0.165E+02	;
Diff2	0.422E+01	;
Diff3	-0.283E+00	;
Diff4	0.102E-01	;
}
H2O-O
{
Diff1	-0.191E+02	;
Diff2	0.499E+01	;
Diff3	-0.419E+00	;
Diff4	0.176E-01	;
}
H2O-OH
{
Diff1	-0.191E+02	;
Diff2	0.499E+01	;
Diff3	-0.419E+00	;
Diff4	0.176E-01	;
}
H2O-HO2
{
Diff1	-0.197E+02	;
Diff2	0.498E+01	;
Diff3	-0.406E+00	;
Diff4	0.166E-01	;
}
H2O-H2
{
Diff1	-0.182E+02	;
Diff2	0.504E+01	;
Diff3	-0.438E+00	;
Diff4	0.189E-01	;
}
H2O-H2O
{
Diff1	-0.118E+02	;
Diff2	0.889E+00	;
Diff3	0.246E+00	;
Diff4	-0.161E-01	;
}
H2O2-N2
{
Diff1	-0.158E+02	;
Diff2	0.359E+01	;
Diff3	-0.257E+00	;
Diff4	0.114E-01	;
}
H2O2-AR
{
Diff1	-0.168E+02	;
Diff2	0.394E+01	;
Diff3	-0.301E+00	;
Diff4	0.132E-01	;
}
H2O2-H
{
Diff1	-0.176E+02	;
Diff2	0.506E+01	;
Diff3	-0.450E+00	;
Diff4	0.199E-01	;
}
H2O2-O
{
Diff1	-0.152E+02	;
Diff2	0.353E+01	;
Diff3	-0.251E+00	;
Diff4	0.112E-01	;
}
H2O2-OH
{
Diff1	-0.151E+02	;
Diff2	0.352E+01	;
Diff3	-0.249E+00	;
Diff4	0.111E-01	;
}
H2O2-HO2
{
Diff1	-0.161E+02	;
Diff2	0.369E+01	;
Diff3	-0.269E+00	;
Diff4	0.119E-01	;
}
H2O2-H2
{
Diff1	-0.127E+02	;
Diff2	0.293E+01	;
Diff3	-0.174E+00	;
Diff4	0.792E-02	;
}
H2O2-H2O
{
Diff1	-0.197E+02	;
Diff2	0.496E+01	;
Diff3	-0.405E+00	;
Diff4	0.165E-01	;
}
H2O2-H2O2
{
Diff1	-0.161E+02	;
Diff2	0.369E+01	;
Diff3	-0.269E+00	;
Diff4	0.119E-01	;
}
O2-N2
{
Diff1	-0.158E+02	;
Diff2	0.359E+01	;
Diff3	-0.257E+00	;
Diff4	0.114E-01	;
}
O2-AR
{
Diff1	-0.168E+02	;
Diff2	0.395E+01	;
Diff3	-0.301E+00	;
Diff4	0.132E-01	;
}
O2-H
{
Diff1	-0.176E+02	;
Diff2	0.505E+01	;
Diff3	-0.449E+00	;
Diff4	0.198E-01	;
}
O2-O
{
Diff1	-0.151E+02	;
Diff2	0.352E+01	;
Diff3	-0.249E+00	;
Diff4	0.111E-01	;
}
O2-OH
{
Diff1	-0.151E+02	;
Diff2	0.350E+01	;
Diff3	-0.247E+00	;
Diff4	0.110E-01	;
}
O2-HO2
{
Diff1	-0.161E+02	;
Diff2	0.369E+01	;
Diff3	-0.269E+00	;
Diff4	0.119E-01	;
}
O2-H2
{
Diff1	-0.127E+02	;
Diff2	0.293E+01	;
Diff3	-0.174E+00	;
Diff4	0.790E-02	;
}
O2-H2O
{
Diff1	-0.203E+02	;
Diff2	0.517E+01	;
Diff3	-0.426E+00	;
Diff4	0.173E-01	;
}
O2-H2O2
{
Diff1	-0.161E+02	;
Diff2	0.369E+01	;
Diff3	-0.269E+00	;
Diff4	0.119E-01	;
}
O2-O2
{
Diff1	-0.161E+02	;
Diff2	0.369E+01	;
Diff3	-0.269E+00	;
Diff4	0.119E-01	;
}
CH2-N2
{
Diff1	-0.166E+02	;
Diff2	0.393E+01	;
Diff3	-0.300E+00	;
Diff4	0.132E-01	;
}
CH2-AR
{
Diff1	-0.178E+02	;
Diff2	0.439E+01	;
Diff3	-0.356E+00	;
Diff4	0.155E-01	;
}
CH2-H
{
Diff1	-0.180E+02	;
Diff2	0.508E+01	;
Diff3	-0.444E+00	;
Diff4	0.192E-01	;
}
CH2-O
{
Diff1	-0.156E+02	;
Diff2	0.370E+01	;
Diff3	-0.271E+00	;
Diff4	0.119E-01	;
}
CH2-OH
{
Diff1	-0.156E+02	;
Diff2	0.370E+01	;
Diff3	-0.270E+00	;
Diff4	0.119E-01	;
}
CH2-HO2
{
Diff1	-0.171E+02	;
Diff2	0.414E+01	;
Diff3	-0.327E+00	;
Diff4	0.143E-01	;
}
CH2-H2
{
Diff1	-0.136E+02	;
Diff2	0.323E+01	;
Diff3	-0.214E+00	;
Diff4	0.966E-02	;
}
CH2-H2O
{
Diff1	-0.204E+02	;
Diff2	0.522E+01	;
Diff3	-0.433E+00	;
Diff4	0.175E-01	;
}
CH2-H2O2
{
Diff1	-0.171E+02	;
Diff2	0.414E+01	;
Diff3	-0.328E+00	;
Diff4	0.144E-01	;
}
CH2-O2
{
Diff1	-0.171E+02	;
Diff2	0.413E+01	;
Diff3	-0.326E+00	;
Diff4	0.143E-01	;
}
CH2-CH2
{
Diff1	-0.177E+02	;
Diff2	0.437E+01	;
Diff3	-0.354E+00	;
Diff4	0.154E-01	;
}
CH2*-N2
{
Diff1	-0.166E+02	;
Diff2	0.393E+01	;
Diff3	-0.300E+00	;
Diff4	0.132E-01	;
}
CH2*-AR
{
Diff1	-0.178E+02	;
Diff2	0.439E+01	;
Diff3	-0.356E+00	;
Diff4	0.155E-01	;
}
CH2*-H
{
Diff1	-0.180E+02	;
Diff2	0.508E+01	;
Diff3	-0.444E+00	;
Diff4	0.192E-01	;
}
CH2*-O
{
Diff1	-0.156E+02	;
Diff2	0.370E+01	;
Diff3	-0.271E+00	;
Diff4	0.119E-01	;
}
CH2*-OH
{
Diff1	-0.156E+02	;
Diff2	0.370E+01	;
Diff3	-0.270E+00	;
Diff4	0.119E-01	;
}
CH2*-HO2
{
Diff1	-0.171E+02	;
Diff2	0.414E+01	;
Diff3	-0.327E+00	;
Diff4	0.143E-01	;
}
CH2*-H2
{
Diff1	-0.136E+02	;
Diff2	0.323E+01	;
Diff3	-0.214E+00	;
Diff4	0.966E-02	;
}
CH2*-H2O
{
Diff1	-0.204E+02	;
Diff2	0.522E+01	;
Diff3	-0.433E+00	;
Diff4	0.175E-01	;
}
CH2*-H2O2
{
Diff1	-0.171E+02	;
Diff2	0.414E+01	;
Diff3	-0.328E+00	;
Diff4	0.144E-01	;
}
CH2*-O2
{
Diff1	-0.171E+02	;
Diff2	0.413E+01	;
Diff3	-0.326E+00	;
Diff4	0.143E-01	;
}
CH2*-CH2
{
Diff1	-0.177E+02	;
Diff2	0.437E+01	;
Diff3	-0.354E+00	;
Diff4	0.154E-01	;
}
CH2*-CH2*
{
Diff1	-0.177E+02	;
Diff2	0.437E+01	;
Diff3	-0.354E+00	;
Diff4	0.154E-01	;
}
CH3-N2
{
Diff1	-0.166E+02	;
Diff2	0.392E+01	;
Diff3	-0.298E+00	;
Diff4	0.131E-01	;
}
CH3-AR
{
Diff1	-0.178E+02	;
Diff2	0.438E+01	;
Diff3	-0.355E+00	;
Diff4	0.155E-01	;
}
CH3-H
{
Diff1	-0.180E+02	;
Diff2	0.509E+01	;
Diff3	-0.446E+00	;
Diff4	0.193E-01	;
}
CH3-O
{
Diff1	-0.156E+02	;
Diff2	0.370E+01	;
Diff3	-0.271E+00	;
Diff4	0.120E-01	;
}
CH3-OH
{
Diff1	-0.156E+02	;
Diff2	0.370E+01	;
Diff3	-0.271E+00	;
Diff4	0.119E-01	;
}
CH3-HO2
{
Diff1	-0.171E+02	;
Diff2	0.413E+01	;
Diff3	-0.325E+00	;
Diff4	0.143E-01	;
}
CH3-H2
{
Diff1	-0.136E+02	;
Diff2	0.324E+01	;
Diff3	-0.215E+00	;
Diff4	0.972E-02	;
}
CH3-H2O
{
Diff1	-0.204E+02	;
Diff2	0.522E+01	;
Diff3	-0.432E+00	;
Diff4	0.175E-01	;
}
CH3-H2O2
{
Diff1	-0.171E+02	;
Diff2	0.413E+01	;
Diff3	-0.326E+00	;
Diff4	0.143E-01	;
}
CH3-O2
{
Diff1	-0.171E+02	;
Diff2	0.412E+01	;
Diff3	-0.324E+00	;
Diff4	0.142E-01	;
}
CH3-CH2
{
Diff1	-0.177E+02	;
Diff2	0.437E+01	;
Diff3	-0.354E+00	;
Diff4	0.154E-01	;
}
CH3-CH2*
{
Diff1	-0.177E+02	;
Diff2	0.437E+01	;
Diff3	-0.354E+00	;
Diff4	0.154E-01	;
}
CH3-CH3
{
Diff1	-0.177E+02	;
Diff2	0.437E+01	;
Diff3	-0.354E+00	;
Diff4	0.154E-01	;
}
CH4-N2
{
Diff1	-0.165E+02	;
Diff2	0.390E+01	;
Diff3	-0.295E+00	;
Diff4	0.130E-01	;
}
CH4-AR
{
Diff1	-0.177E+02	;
Diff2	0.435E+01	;
Diff3	-0.352E+00	;
Diff4	0.153E-01	;
}
CH4-H
{
Diff1	-0.179E+02	;
Diff2	0.505E+01	;
Diff3	-0.441E+00	;
Diff4	0.191E-01	;
}
CH4-O
{
Diff1	-0.156E+02	;
Diff2	0.368E+01	;
Diff3	-0.269E+00	;
Diff4	0.119E-01	;
}
CH4-OH
{
Diff1	-0.156E+02	;
Diff2	0.368E+01	;
Diff3	-0.268E+00	;
Diff4	0.118E-01	;
}
CH4-HO2
{
Diff1	-0.170E+02	;
Diff2	0.408E+01	;
Diff3	-0.319E+00	;
Diff4	0.140E-01	;
}
CH4-H2
{
Diff1	-0.135E+02	;
Diff2	0.323E+01	;
Diff3	-0.213E+00	;
Diff4	0.964E-02	;
}
CH4-H2O
{
Diff1	-0.205E+02	;
Diff2	0.519E+01	;
Diff3	-0.420E+00	;
Diff4	0.166E-01	;
}
CH4-H2O2
{
Diff1	-0.170E+02	;
Diff2	0.409E+01	;
Diff3	-0.320E+00	;
Diff4	0.140E-01	;
}
CH4-O2
{
Diff1	-0.170E+02	;
Diff2	0.407E+01	;
Diff3	-0.318E+00	;
Diff4	0.140E-01	;
}
CH4-CH2
{
Diff1	-0.177E+02	;
Diff2	0.434E+01	;
Diff3	-0.351E+00	;
Diff4	0.153E-01	;
}
CH4-CH2*
{
Diff1	-0.177E+02	;
Diff2	0.434E+01	;
Diff3	-0.351E+00	;
Diff4	0.153E-01	;
}
CH4-CH3
{
Diff1	-0.177E+02	;
Diff2	0.434E+01	;
Diff3	-0.351E+00	;
Diff4	0.153E-01	;
}
CH4-CH4
{
Diff1	-0.176E+02	;
Diff2	0.432E+01	;
Diff3	-0.348E+00	;
Diff4	0.152E-01	;
}
HCO-N2
{
Diff1	-0.201E+02	;
Diff2	0.503E+01	;
Diff3	-0.424E+00	;
Diff4	0.178E-01	;
}
HCO-AR
{
Diff1	-0.207E+02	;
Diff2	0.519E+01	;
Diff3	-0.435E+00	;
Diff4	0.179E-01	;
}
HCO-H
{
Diff1	-0.154E+02	;
Diff2	0.357E+01	;
Diff3	-0.188E+00	;
Diff4	0.559E-02	;
}
HCO-O
{
Diff1	-0.192E+02	;
Diff2	0.487E+01	;
Diff3	-0.405E+00	;
Diff4	0.170E-01	;
}
HCO-OH
{
Diff1	-0.192E+02	;
Diff2	0.488E+01	;
Diff3	-0.406E+00	;
Diff4	0.171E-01	;
}
HCO-HO2
{
Diff1	-0.203E+02	;
Diff2	0.511E+01	;
Diff3	-0.432E+00	;
Diff4	0.180E-01	;
}
HCO-H2
{
Diff1	-0.175E+02	;
Diff2	0.467E+01	;
Diff3	-0.393E+00	;
Diff4	0.171E-01	;
}
HCO-H2O
{
Diff1	-0.176E+02	;
Diff2	0.351E+01	;
Diff3	-0.150E+00	;
Diff4	0.297E-02	;
}
HCO-H2O2
{
Diff1	-0.203E+02	;
Diff2	0.511E+01	;
Diff3	-0.432E+00	;
Diff4	0.180E-01	;
}
HCO-O2
{
Diff1	-0.203E+02	;
Diff2	0.511E+01	;
Diff3	-0.432E+00	;
Diff4	0.180E-01	;
}
HCO-CH2
{
Diff1	-0.204E+02	;
Diff2	0.510E+01	;
Diff3	-0.418E+00	;
Diff4	0.170E-01	;
}
HCO-CH2*
{
Diff1	-0.204E+02	;
Diff2	0.510E+01	;
Diff3	-0.418E+00	;
Diff4	0.170E-01	;
}
HCO-CH3
{
Diff1	-0.205E+02	;
Diff2	0.512E+01	;
Diff3	-0.421E+00	;
Diff4	0.171E-01	;
}
HCO-CH4
{
Diff1	-0.205E+02	;
Diff2	0.513E+01	;
Diff3	-0.424E+00	;
Diff4	0.173E-01	;
}
HCO-HCO
{
Diff1	-0.189E+02	;
Diff2	0.392E+01	;
Diff3	-0.212E+00	;
Diff4	0.594E-02	;
}
CH2O-N2
{
Diff1	-0.201E+02	;
Diff2	0.503E+01	;
Diff3	-0.424E+00	;
Diff4	0.177E-01	;
}
CH2O-AR
{
Diff1	-0.207E+02	;
Diff2	0.519E+01	;
Diff3	-0.435E+00	;
Diff4	0.179E-01	;
}
CH2O-H
{
Diff1	-0.154E+02	;
Diff2	0.357E+01	;
Diff3	-0.187E+00	;
Diff4	0.554E-02	;
}
CH2O-O
{
Diff1	-0.191E+02	;
Diff2	0.486E+01	;
Diff3	-0.404E+00	;
Diff4	0.170E-01	;
}
CH2O-OH
{
Diff1	-0.192E+02	;
Diff2	0.487E+01	;
Diff3	-0.405E+00	;
Diff4	0.170E-01	;
}
CH2O-HO2
{
Diff1	-0.203E+02	;
Diff2	0.511E+01	;
Diff3	-0.432E+00	;
Diff4	0.180E-01	;
}
CH2O-H2
{
Diff1	-0.175E+02	;
Diff2	0.467E+01	;
Diff3	-0.394E+00	;
Diff4	0.171E-01	;
}
CH2O-H2O
{
Diff1	-0.176E+02	;
Diff2	0.351E+01	;
Diff3	-0.150E+00	;
Diff4	0.296E-02	;
}
CH2O-H2O2
{
Diff1	-0.203E+02	;
Diff2	0.511E+01	;
Diff3	-0.432E+00	;
Diff4	0.180E-01	;
}
CH2O-O2
{
Diff1	-0.203E+02	;
Diff2	0.511E+01	;
Diff3	-0.432E+00	;
Diff4	0.180E-01	;
}
CH2O-CH2
{
Diff1	-0.204E+02	;
Diff2	0.509E+01	;
Diff3	-0.417E+00	;
Diff4	0.169E-01	;
}
CH2O-CH2*
{
Diff1	-0.204E+02	;
Diff2	0.509E+01	;
Diff3	-0.417E+00	;
Diff4	0.169E-01	;
}
CH2O-CH3
{
Diff1	-0.205E+02	;
Diff2	0.511E+01	;
Diff3	-0.420E+00	;
Diff4	0.170E-01	;
}
CH2O-CH4
{
Diff1	-0.205E+02	;
Diff2	0.512E+01	;
Diff3	-0.423E+00	;
Diff4	0.172E-01	;
}
CH2O-HCO
{
Diff1	-0.189E+02	;
Diff2	0.392E+01	;
Diff3	-0.212E+00	;
Diff4	0.594E-02	;
}
CH2O-CH2O
{
Diff1	-0.189E+02	;
Diff2	0.392E+01	;
Diff3	-0.212E+00	;
Diff4	0.594E-02	;
}
CH3O-N2
{
Diff1	-0.200E+02	;
Diff2	0.502E+01	;
Diff3	-0.425E+00	;
Diff4	0.180E-01	;
}
CH3O-AR
{
Diff1	-0.204E+02	;
Diff2	0.512E+01	;
Diff3	-0.430E+00	;
Diff4	0.179E-01	;
}
CH3O-H
{
Diff1	-0.156E+02	;
Diff2	0.370E+01	;
Diff3	-0.210E+00	;
Diff4	0.679E-02	;
}
CH3O-O
{
Diff1	-0.188E+02	;
Diff2	0.475E+01	;
Diff3	-0.392E+00	;
Diff4	0.166E-01	;
}
CH3O-OH
{
Diff1	-0.188E+02	;
Diff2	0.475E+01	;
Diff3	-0.393E+00	;
Diff4	0.167E-01	;
}
CH3O-HO2
{
Diff1	-0.199E+02	;
Diff2	0.499E+01	;
Diff3	-0.420E+00	;
Diff4	0.177E-01	;
}
CH3O-H2
{
Diff1	-0.180E+02	;
Diff2	0.491E+01	;
Diff3	-0.429E+00	;
Diff4	0.189E-01	;
}
CH3O-H2O
{
Diff1	-0.162E+02	;
Diff2	0.284E+01	;
Diff3	-0.510E-01	;
Diff4	-0.171E-02	;
}
CH3O-H2O2
{
Diff1	-0.199E+02	;
Diff2	0.499E+01	;
Diff3	-0.420E+00	;
Diff4	0.177E-01	;
}
CH3O-O2
{
Diff1	-0.202E+02	;
Diff2	0.506E+01	;
Diff3	-0.428E+00	;
Diff4	0.180E-01	;
}
CH3O-CH2
{
Diff1	-0.201E+02	;
Diff2	0.500E+01	;
Diff3	-0.410E+00	;
Diff4	0.168E-01	;
}
CH3O-CH2*
{
Diff1	-0.201E+02	;
Diff2	0.500E+01	;
Diff3	-0.410E+00	;
Diff4	0.168E-01	;
}
CH3O-CH3
{
Diff1	-0.201E+02	;
Diff2	0.502E+01	;
Diff3	-0.413E+00	;
Diff4	0.169E-01	;
}
CH3O-CH4
{
Diff1	-0.203E+02	;
Diff2	0.509E+01	;
Diff3	-0.421E+00	;
Diff4	0.172E-01	;
}
CH3O-HCO
{
Diff1	-0.198E+02	;
Diff2	0.438E+01	;
Diff3	-0.281E+00	;
Diff4	0.937E-02	;
}
CH3O-CH2O
{
Diff1	-0.198E+02	;
Diff2	0.438E+01	;
Diff3	-0.281E+00	;
Diff4	0.937E-02	;
}
CH3O-CH3O
{
Diff1	-0.191E+02	;
Diff2	0.405E+01	;
Diff3	-0.236E+00	;
Diff4	0.731E-02	;
}
CO-N2
{
Diff1	-0.155E+02	;
Diff2	0.347E+01	;
Diff3	-0.241E+00	;
Diff4	0.107E-01	;
}
CO-AR
{
Diff1	-0.165E+02	;
Diff2	0.384E+01	;
Diff3	-0.288E+00	;
Diff4	0.127E-01	;
}
CO-H
{
Diff1	-0.172E+02	;
Diff2	0.486E+01	;
Diff3	-0.424E+00	;
Diff4	0.187E-01	;
}
CO-O
{
Diff1	-0.148E+02	;
Diff2	0.337E+01	;
Diff3	-0.230E+00	;
Diff4	0.103E-01	;
}
CO-OH
{
Diff1	-0.148E+02	;
Diff2	0.336E+01	;
Diff3	-0.228E+00	;
Diff4	0.102E-01	;
}
CO-HO2
{
Diff1	-0.158E+02	;
Diff2	0.360E+01	;
Diff3	-0.258E+00	;
Diff4	0.114E-01	;
}
CO-H2
{
Diff1	-0.127E+02	;
Diff2	0.290E+01	;
Diff3	-0.171E+00	;
Diff4	0.777E-02	;
}
CO-H2O
{
Diff1	-0.203E+02	;
Diff2	0.519E+01	;
Diff3	-0.431E+00	;
Diff4	0.176E-01	;
}
CO-H2O2
{
Diff1	-0.158E+02	;
Diff2	0.360E+01	;
Diff3	-0.259E+00	;
Diff4	0.115E-01	;
}
CO-O2
{
Diff1	-0.158E+02	;
Diff2	0.360E+01	;
Diff3	-0.258E+00	;
Diff4	0.114E-01	;
}
CO-CH2
{
Diff1	-0.166E+02	;
Diff2	0.394E+01	;
Diff3	-0.301E+00	;
Diff4	0.132E-01	;
}
CO-CH2*
{
Diff1	-0.166E+02	;
Diff2	0.394E+01	;
Diff3	-0.301E+00	;
Diff4	0.132E-01	;
}
CO-CH3
{
Diff1	-0.166E+02	;
Diff2	0.393E+01	;
Diff3	-0.299E+00	;
Diff4	0.131E-01	;
}
CO-CH4
{
Diff1	-0.165E+02	;
Diff2	0.390E+01	;
Diff3	-0.296E+00	;
Diff4	0.130E-01	;
}
CO-HCO
{
Diff1	-0.201E+02	;
Diff2	0.504E+01	;
Diff3	-0.424E+00	;
Diff4	0.178E-01	;
}
CO-CH2O
{
Diff1	-0.201E+02	;
Diff2	0.504E+01	;
Diff3	-0.424E+00	;
Diff4	0.178E-01	;
}
CO-CH3O
{
Diff1	-0.200E+02	;
Diff2	0.503E+01	;
Diff3	-0.426E+00	;
Diff4	0.180E-01	;
}
CO-CO
{
Diff1	-0.155E+02	;
Diff2	0.347E+01	;
Diff3	-0.242E+00	;
Diff4	0.107E-01	;
}
CO2-N2
{
Diff1	-0.185E+02	;
Diff2	0.451E+01	;
Diff3	-0.370E+00	;
Diff4	0.160E-01	;
}
CO2-AR
{
Diff1	-0.193E+02	;
Diff2	0.476E+01	;
Diff3	-0.396E+00	;
Diff4	0.169E-01	;
}
CO2-H
{
Diff1	-0.173E+02	;
Diff2	0.457E+01	;
Diff3	-0.351E+00	;
Diff4	0.140E-01	;
}
CO2-O
{
Diff1	-0.179E+02	;
Diff2	0.449E+01	;
Diff3	-0.370E+00	;
Diff4	0.161E-01	;
}
CO2-OH
{
Diff1	-0.179E+02	;
Diff2	0.448E+01	;
Diff3	-0.368E+00	;
Diff4	0.160E-01	;
}
CO2-HO2
{
Diff1	-0.187E+02	;
Diff2	0.456E+01	;
Diff3	-0.375E+00	;
Diff4	0.162E-01	;
}
CO2-H2
{
Diff1	-0.156E+02	;
Diff2	0.403E+01	;
Diff3	-0.318E+00	;
Diff4	0.142E-01	;
}
CO2-H2O
{
Diff1	-0.192E+02	;
Diff2	0.436E+01	;
Diff3	-0.284E+00	;
Diff4	0.965E-02	;
}
CO2-H2O2
{
Diff1	-0.187E+02	;
Diff2	0.456E+01	;
Diff3	-0.375E+00	;
Diff4	0.162E-01	;
}
CO2-O2
{
Diff1	-0.187E+02	;
Diff2	0.457E+01	;
Diff3	-0.375E+00	;
Diff4	0.162E-01	;
}
CO2-CH2
{
Diff1	-0.192E+02	;
Diff2	0.477E+01	;
Diff3	-0.394E+00	;
Diff4	0.166E-01	;
}
CO2-CH2*
{
Diff1	-0.192E+02	;
Diff2	0.477E+01	;
Diff3	-0.394E+00	;
Diff4	0.166E-01	;
}
CO2-CH3
{
Diff1	-0.192E+02	;
Diff2	0.477E+01	;
Diff3	-0.394E+00	;
Diff4	0.167E-01	;
}
CO2-CH4
{
Diff1	-0.192E+02	;
Diff2	0.476E+01	;
Diff3	-0.394E+00	;
Diff4	0.167E-01	;
}
CO2-HCO
{
Diff1	-0.210E+02	;
Diff2	0.506E+01	;
Diff3	-0.396E+00	;
Diff4	0.153E-01	;
}
CO2-CH2O
{
Diff1	-0.211E+02	;
Diff2	0.507E+01	;
Diff3	-0.397E+00	;
Diff4	0.154E-01	;
}
CO2-CH3O
{
Diff1	-0.211E+02	;
Diff2	0.512E+01	;
Diff3	-0.407E+00	;
Diff4	0.160E-01	;
}
CO2-CO
{
Diff1	-0.185E+02	;
Diff2	0.452E+01	;
Diff3	-0.371E+00	;
Diff4	0.160E-01	;
}
CO2-CO2
{
Diff1	-0.207E+02	;
Diff2	0.513E+01	;
Diff3	-0.430E+00	;
Diff4	0.178E-01	;
}
C2H2-N2
{
Diff1	-0.180E+02	;
Diff2	0.434E+01	;
Diff3	-0.351E+00	;
Diff4	0.153E-01	;
}
C2H2-AR
{
Diff1	-0.189E+02	;
Diff2	0.467E+01	;
Diff3	-0.387E+00	;
Diff4	0.167E-01	;
}
C2H2-H
{
Diff1	-0.177E+02	;
Diff2	0.478E+01	;
Diff3	-0.386E+00	;
Diff4	0.158E-01	;
}
C2H2-O
{
Diff1	-0.173E+02	;
Diff2	0.426E+01	;
Diff3	-0.342E+00	;
Diff4	0.150E-01	;
}
C2H2-OH
{
Diff1	-0.173E+02	;
Diff2	0.424E+01	;
Diff3	-0.340E+00	;
Diff4	0.149E-01	;
}
C2H2-HO2
{
Diff1	-0.182E+02	;
Diff2	0.440E+01	;
Diff3	-0.357E+00	;
Diff4	0.155E-01	;
}
C2H2-H2
{
Diff1	-0.153E+02	;
Diff2	0.387E+01	;
Diff3	-0.299E+00	;
Diff4	0.134E-01	;
}
C2H2-H2O
{
Diff1	-0.202E+02	;
Diff2	0.491E+01	;
Diff3	-0.374E+00	;
Diff4	0.143E-01	;
}
C2H2-H2O2
{
Diff1	-0.182E+02	;
Diff2	0.440E+01	;
Diff3	-0.357E+00	;
Diff4	0.155E-01	;
}
C2H2-O2
{
Diff1	-0.182E+02	;
Diff2	0.440E+01	;
Diff3	-0.357E+00	;
Diff4	0.155E-01	;
}
C2H2-CH2
{
Diff1	-0.189E+02	;
Diff2	0.470E+01	;
Diff3	-0.390E+00	;
Diff4	0.167E-01	;
}
C2H2-CH2*
{
Diff1	-0.189E+02	;
Diff2	0.470E+01	;
Diff3	-0.390E+00	;
Diff4	0.167E-01	;
}
C2H2-CH3
{
Diff1	-0.189E+02	;
Diff2	0.470E+01	;
Diff3	-0.390E+00	;
Diff4	0.167E-01	;
}
C2H2-CH4
{
Diff1	-0.189E+02	;
Diff2	0.468E+01	;
Diff3	-0.388E+00	;
Diff4	0.166E-01	;
}
C2H2-HCO
{
Diff1	-0.211E+02	;
Diff2	0.517E+01	;
Diff3	-0.417E+00	;
Diff4	0.165E-01	;
}
C2H2-CH2O
{
Diff1	-0.211E+02	;
Diff2	0.517E+01	;
Diff3	-0.417E+00	;
Diff4	0.165E-01	;
}
C2H2-CH3O
{
Diff1	-0.211E+02	;
Diff2	0.522E+01	;
Diff3	-0.431E+00	;
Diff4	0.174E-01	;
}
C2H2-CO
{
Diff1	-0.180E+02	;
Diff2	0.435E+01	;
Diff3	-0.352E+00	;
Diff4	0.153E-01	;
}
C2H2-CO2
{
Diff1	-0.204E+02	;
Diff2	0.505E+01	;
Diff3	-0.424E+00	;
Diff4	0.177E-01	;
}
C2H2-C2H2
{
Diff1	-0.201E+02	;
Diff2	0.498E+01	;
Diff3	-0.420E+00	;
Diff4	0.177E-01	;
}
C2H3-N2
{
Diff1	-0.180E+02	;
Diff2	0.435E+01	;
Diff3	-0.351E+00	;
Diff4	0.153E-01	;
}
C2H3-AR
{
Diff1	-0.190E+02	;
Diff2	0.467E+01	;
Diff3	-0.387E+00	;
Diff4	0.167E-01	;
}
C2H3-H
{
Diff1	-0.177E+02	;
Diff2	0.478E+01	;
Diff3	-0.386E+00	;
Diff4	0.158E-01	;
}
C2H3-O
{
Diff1	-0.173E+02	;
Diff2	0.427E+01	;
Diff3	-0.343E+00	;
Diff4	0.150E-01	;
}
C2H3-OH
{
Diff1	-0.173E+02	;
Diff2	0.425E+01	;
Diff3	-0.341E+00	;
Diff4	0.149E-01	;
}
C2H3-HO2
{
Diff1	-0.182E+02	;
Diff2	0.440E+01	;
Diff3	-0.357E+00	;
Diff4	0.155E-01	;
}
C2H3-H2
{
Diff1	-0.153E+02	;
Diff2	0.387E+01	;
Diff3	-0.299E+00	;
Diff4	0.135E-01	;
}
C2H3-H2O
{
Diff1	-0.202E+02	;
Diff2	0.489E+01	;
Diff3	-0.371E+00	;
Diff4	0.142E-01	;
}
C2H3-H2O2
{
Diff1	-0.182E+02	;
Diff2	0.440E+01	;
Diff3	-0.357E+00	;
Diff4	0.155E-01	;
}
C2H3-O2
{
Diff1	-0.182E+02	;
Diff2	0.440E+01	;
Diff3	-0.357E+00	;
Diff4	0.155E-01	;
}
C2H3-CH2
{
Diff1	-0.189E+02	;
Diff2	0.470E+01	;
Diff3	-0.390E+00	;
Diff4	0.167E-01	;
}
C2H3-CH2*
{
Diff1	-0.189E+02	;
Diff2	0.470E+01	;
Diff3	-0.390E+00	;
Diff4	0.167E-01	;
}
C2H3-CH3
{
Diff1	-0.190E+02	;
Diff2	0.470E+01	;
Diff3	-0.390E+00	;
Diff4	0.167E-01	;
}
C2H3-CH4
{
Diff1	-0.189E+02	;
Diff2	0.468E+01	;
Diff3	-0.388E+00	;
Diff4	0.166E-01	;
}
C2H3-HCO
{
Diff1	-0.211E+02	;
Diff2	0.517E+01	;
Diff3	-0.417E+00	;
Diff4	0.165E-01	;
}
C2H3-CH2O
{
Diff1	-0.212E+02	;
Diff2	0.517E+01	;
Diff3	-0.417E+00	;
Diff4	0.165E-01	;
}
C2H3-CH3O
{
Diff1	-0.211E+02	;
Diff2	0.522E+01	;
Diff3	-0.431E+00	;
Diff4	0.174E-01	;
}
C2H3-CO
{
Diff1	-0.180E+02	;
Diff2	0.435E+01	;
Diff3	-0.352E+00	;
Diff4	0.153E-01	;
}
C2H3-CO2
{
Diff1	-0.204E+02	;
Diff2	0.505E+01	;
Diff3	-0.425E+00	;
Diff4	0.177E-01	;
}
C2H3-C2H2
{
Diff1	-0.201E+02	;
Diff2	0.498E+01	;
Diff3	-0.420E+00	;
Diff4	0.177E-01	;
}
C2H3-C2H3
{
Diff1	-0.201E+02	;
Diff2	0.498E+01	;
Diff3	-0.420E+00	;
Diff4	0.177E-01	;
}
C2H4-N2
{
Diff1	-0.188E+02	;
Diff2	0.461E+01	;
Diff3	-0.380E+00	;
Diff4	0.164E-01	;
}
C2H4-AR
{
Diff1	-0.196E+02	;
Diff2	0.488E+01	;
Diff3	-0.409E+00	;
Diff4	0.173E-01	;
}
C2H4-H
{
Diff1	-0.169E+02	;
Diff2	0.435E+01	;
Diff3	-0.315E+00	;
Diff4	0.121E-01	;
}
C2H4-O
{
Diff1	-0.180E+02	;
Diff2	0.449E+01	;
Diff3	-0.368E+00	;
Diff4	0.159E-01	;
}
C2H4-OH
{
Diff1	-0.180E+02	;
Diff2	0.448E+01	;
Diff3	-0.367E+00	;
Diff4	0.159E-01	;
}
C2H4-HO2
{
Diff1	-0.190E+02	;
Diff2	0.469E+01	;
Diff3	-0.390E+00	;
Diff4	0.167E-01	;
}
C2H4-H2
{
Diff1	-0.165E+02	;
Diff2	0.433E+01	;
Diff3	-0.359E+00	;
Diff4	0.160E-01	;
}
C2H4-H2O
{
Diff1	-0.199E+02	;
Diff2	0.466E+01	;
Diff3	-0.329E+00	;
Diff4	0.119E-01	;
}
C2H4-H2O2
{
Diff1	-0.190E+02	;
Diff2	0.469E+01	;
Diff3	-0.390E+00	;
Diff4	0.167E-01	;
}
C2H4-O2
{
Diff1	-0.190E+02	;
Diff2	0.469E+01	;
Diff3	-0.390E+00	;
Diff4	0.167E-01	;
}
C2H4-CH2
{
Diff1	-0.196E+02	;
Diff2	0.489E+01	;
Diff3	-0.408E+00	;
Diff4	0.172E-01	;
}
C2H4-CH2*
{
Diff1	-0.196E+02	;
Diff2	0.489E+01	;
Diff3	-0.408E+00	;
Diff4	0.172E-01	;
}
C2H4-CH3
{
Diff1	-0.196E+02	;
Diff2	0.490E+01	;
Diff3	-0.409E+00	;
Diff4	0.173E-01	;
}
C2H4-CH4
{
Diff1	-0.196E+02	;
Diff2	0.489E+01	;
Diff3	-0.409E+00	;
Diff4	0.173E-01	;
}
C2H4-HCO
{
Diff1	-0.209E+02	;
Diff2	0.497E+01	;
Diff3	-0.379E+00	;
Diff4	0.144E-01	;
}
C2H4-CH2O
{
Diff1	-0.209E+02	;
Diff2	0.497E+01	;
Diff3	-0.379E+00	;
Diff4	0.144E-01	;
}
C2H4-CH3O
{
Diff1	-0.211E+02	;
Diff2	0.512E+01	;
Diff3	-0.406E+00	;
Diff4	0.159E-01	;
}
C2H4-CO
{
Diff1	-0.188E+02	;
Diff2	0.461E+01	;
Diff3	-0.381E+00	;
Diff4	0.164E-01	;
}
C2H4-CO2
{
Diff1	-0.209E+02	;
Diff2	0.517E+01	;
Diff3	-0.431E+00	;
Diff4	0.176E-01	;
}
C2H4-C2H2
{
Diff1	-0.206E+02	;
Diff2	0.513E+01	;
Diff3	-0.430E+00	;
Diff4	0.178E-01	;
}
C2H4-C2H3
{
Diff1	-0.206E+02	;
Diff2	0.513E+01	;
Diff3	-0.430E+00	;
Diff4	0.178E-01	;
}
C2H4-C2H4
{
Diff1	-0.212E+02	;
Diff2	0.526E+01	;
Diff3	-0.440E+00	;
Diff4	0.179E-01	;
}
C2H5-N2
{
Diff1	-0.186E+02	;
Diff2	0.453E+01	;
Diff3	-0.373E+00	;
Diff4	0.161E-01	;
}
C2H5-AR
{
Diff1	-0.194E+02	;
Diff2	0.478E+01	;
Diff3	-0.399E+00	;
Diff4	0.170E-01	;
}
C2H5-H
{
Diff1	-0.174E+02	;
Diff2	0.452E+01	;
Diff3	-0.339E+00	;
Diff4	0.133E-01	;
}
C2H5-O
{
Diff1	-0.180E+02	;
Diff2	0.448E+01	;
Diff3	-0.369E+00	;
Diff4	0.160E-01	;
}
C2H5-OH
{
Diff1	-0.180E+02	;
Diff2	0.447E+01	;
Diff3	-0.367E+00	;
Diff4	0.160E-01	;
}
C2H5-HO2
{
Diff1	-0.188E+02	;
Diff2	0.459E+01	;
Diff3	-0.379E+00	;
Diff4	0.163E-01	;
}
C2H5-H2
{
Diff1	-0.162E+02	;
Diff2	0.417E+01	;
Diff3	-0.338E+00	;
Diff4	0.151E-01	;
}
C2H5-H2O
{
Diff1	-0.201E+02	;
Diff2	0.474E+01	;
Diff3	-0.344E+00	;
Diff4	0.127E-01	;
}
C2H5-H2O2
{
Diff1	-0.188E+02	;
Diff2	0.459E+01	;
Diff3	-0.379E+00	;
Diff4	0.163E-01	;
}
C2H5-O2
{
Diff1	-0.188E+02	;
Diff2	0.460E+01	;
Diff3	-0.379E+00	;
Diff4	0.163E-01	;
}
C2H5-CH2
{
Diff1	-0.194E+02	;
Diff2	0.482E+01	;
Diff3	-0.401E+00	;
Diff4	0.170E-01	;
}
C2H5-CH2*
{
Diff1	-0.194E+02	;
Diff2	0.482E+01	;
Diff3	-0.401E+00	;
Diff4	0.170E-01	;
}
C2H5-CH3
{
Diff1	-0.194E+02	;
Diff2	0.482E+01	;
Diff3	-0.402E+00	;
Diff4	0.170E-01	;
}
C2H5-CH4
{
Diff1	-0.194E+02	;
Diff2	0.480E+01	;
Diff3	-0.400E+00	;
Diff4	0.169E-01	;
}
C2H5-HCO
{
Diff1	-0.211E+02	;
Diff2	0.506E+01	;
Diff3	-0.394E+00	;
Diff4	0.152E-01	;
}
C2H5-CH2O
{
Diff1	-0.211E+02	;
Diff2	0.506E+01	;
Diff3	-0.394E+00	;
Diff4	0.152E-01	;
}
C2H5-CH3O
{
Diff1	-0.212E+02	;
Diff2	0.516E+01	;
Diff3	-0.415E+00	;
Diff4	0.164E-01	;
}
C2H5-CO
{
Diff1	-0.186E+02	;
Diff2	0.454E+01	;
Diff3	-0.374E+00	;
Diff4	0.162E-01	;
}
C2H5-CO2
{
Diff1	-0.208E+02	;
Diff2	0.511E+01	;
Diff3	-0.426E+00	;
Diff4	0.176E-01	;
}
C2H5-C2H2
{
Diff1	-0.206E+02	;
Diff2	0.511E+01	;
Diff3	-0.432E+00	;
Diff4	0.180E-01	;
}
C2H5-C2H3
{
Diff1	-0.206E+02	;
Diff2	0.511E+01	;
Diff3	-0.432E+00	;
Diff4	0.180E-01	;
}
C2H5-C2H4
{
Diff1	-0.211E+02	;
Diff2	0.522E+01	;
Diff3	-0.437E+00	;
Diff4	0.179E-01	;
}
C2H5-C2H5
{
Diff1	-0.209E+02	;
Diff2	0.515E+01	;
Diff3	-0.431E+00	;
Diff4	0.178E-01	;
}
C2H6-N2
{
Diff1	-0.186E+02	;
Diff2	0.453E+01	;
Diff3	-0.373E+00	;
Diff4	0.161E-01	;
}
C2H6-AR
{
Diff1	-0.194E+02	;
Diff2	0.479E+01	;
Diff3	-0.399E+00	;
Diff4	0.170E-01	;
}
C2H6-H
{
Diff1	-0.174E+02	;
Diff2	0.451E+01	;
Diff3	-0.339E+00	;
Diff4	0.133E-01	;
}
C2H6-O
{
Diff1	-0.181E+02	;
Diff2	0.449E+01	;
Diff3	-0.370E+00	;
Diff4	0.161E-01	;
}
C2H6-OH
{
Diff1	-0.180E+02	;
Diff2	0.448E+01	;
Diff3	-0.368E+00	;
Diff4	0.160E-01	;
}
C2H6-HO2
{
Diff1	-0.188E+02	;
Diff2	0.460E+01	;
Diff3	-0.379E+00	;
Diff4	0.163E-01	;
}
C2H6-H2
{
Diff1	-0.162E+02	;
Diff2	0.418E+01	;
Diff3	-0.339E+00	;
Diff4	0.152E-01	;
}
C2H6-H2O
{
Diff1	-0.201E+02	;
Diff2	0.473E+01	;
Diff3	-0.342E+00	;
Diff4	0.126E-01	;
}
C2H6-H2O2
{
Diff1	-0.188E+02	;
Diff2	0.460E+01	;
Diff3	-0.379E+00	;
Diff4	0.163E-01	;
}
C2H6-O2
{
Diff1	-0.188E+02	;
Diff2	0.460E+01	;
Diff3	-0.379E+00	;
Diff4	0.163E-01	;
}
C2H6-CH2
{
Diff1	-0.194E+02	;
Diff2	0.482E+01	;
Diff3	-0.400E+00	;
Diff4	0.169E-01	;
}
C2H6-CH2*
{
Diff1	-0.194E+02	;
Diff2	0.482E+01	;
Diff3	-0.400E+00	;
Diff4	0.169E-01	;
}
C2H6-CH3
{
Diff1	-0.194E+02	;
Diff2	0.482E+01	;
Diff3	-0.401E+00	;
Diff4	0.170E-01	;
}
C2H6-CH4
{
Diff1	-0.194E+02	;
Diff2	0.480E+01	;
Diff3	-0.399E+00	;
Diff4	0.169E-01	;
}
C2H6-HCO
{
Diff1	-0.211E+02	;
Diff2	0.505E+01	;
Diff3	-0.394E+00	;
Diff4	0.152E-01	;
}
C2H6-CH2O
{
Diff1	-0.211E+02	;
Diff2	0.506E+01	;
Diff3	-0.394E+00	;
Diff4	0.152E-01	;
}
C2H6-CH3O
{
Diff1	-0.212E+02	;
Diff2	0.516E+01	;
Diff3	-0.415E+00	;
Diff4	0.164E-01	;
}
C2H6-CO
{
Diff1	-0.187E+02	;
Diff2	0.454E+01	;
Diff3	-0.374E+00	;
Diff4	0.162E-01	;
}
C2H6-CO2
{
Diff1	-0.208E+02	;
Diff2	0.511E+01	;
Diff3	-0.427E+00	;
Diff4	0.176E-01	;
}
C2H6-C2H2
{
Diff1	-0.206E+02	;
Diff2	0.511E+01	;
Diff3	-0.431E+00	;
Diff4	0.180E-01	;
}
C2H6-C2H3
{
Diff1	-0.206E+02	;
Diff2	0.511E+01	;
Diff3	-0.432E+00	;
Diff4	0.180E-01	;
}
C2H6-C2H4
{
Diff1	-0.211E+02	;
Diff2	0.522E+01	;
Diff3	-0.437E+00	;
Diff4	0.179E-01	;
}
C2H6-C2H5
{
Diff1	-0.209E+02	;
Diff2	0.515E+01	;
Diff3	-0.431E+00	;
Diff4	0.178E-01	;
}
C2H6-C2H6
{
Diff1	-0.209E+02	;
Diff2	0.515E+01	;
Diff3	-0.431E+00	;
Diff4	0.178E-01	;
}
CH2CHO-N2
{
Diff1	-0.199E+02	;
Diff2	0.494E+01	;
Diff3	-0.413E+00	;
Diff4	0.174E-01	;
}
CH2CHO-AR
{
Diff1	-0.206E+02	;
Diff2	0.511E+01	;
Diff3	-0.427E+00	;
Diff4	0.177E-01	;
}
CH2CHO-H
{
Diff1	-0.151E+02	;
Diff2	0.340E+01	;
Diff3	-0.165E+00	;
Diff4	0.455E-02	;
}
CH2CHO-O
{
Diff1	-0.190E+02	;
Diff2	0.476E+01	;
Diff3	-0.390E+00	;
Diff4	0.164E-01	;
}
CH2CHO-OH
{
Diff1	-0.190E+02	;
Diff2	0.476E+01	;
Diff3	-0.391E+00	;
Diff4	0.165E-01	;
}
CH2CHO-HO2
{
Diff1	-0.201E+02	;
Diff2	0.498E+01	;
Diff3	-0.417E+00	;
Diff4	0.175E-01	;
}
CH2CHO-H2
{
Diff1	-0.177E+02	;
Diff2	0.474E+01	;
Diff3	-0.406E+00	;
Diff4	0.178E-01	;
}
CH2CHO-H2O
{
Diff1	-0.184E+02	;
Diff2	0.382E+01	;
Diff3	-0.199E+00	;
Diff4	0.547E-02	;
}
CH2CHO-H2O2
{
Diff1	-0.201E+02	;
Diff2	0.498E+01	;
Diff3	-0.417E+00	;
Diff4	0.175E-01	;
}
CH2CHO-O2
{
Diff1	-0.201E+02	;
Diff2	0.497E+01	;
Diff3	-0.416E+00	;
Diff4	0.174E-01	;
}
CH2CHO-CH2
{
Diff1	-0.200E+02	;
Diff2	0.488E+01	;
Diff3	-0.391E+00	;
Diff4	0.158E-01	;
}
CH2CHO-CH2*
{
Diff1	-0.200E+02	;
Diff2	0.488E+01	;
Diff3	-0.391E+00	;
Diff4	0.158E-01	;
}
CH2CHO-CH3
{
Diff1	-0.200E+02	;
Diff2	0.490E+01	;
Diff3	-0.394E+00	;
Diff4	0.160E-01	;
}
CH2CHO-CH4
{
Diff1	-0.201E+02	;
Diff2	0.492E+01	;
Diff3	-0.398E+00	;
Diff4	0.162E-01	;
}
CH2CHO-HCO
{
Diff1	-0.197E+02	;
Diff2	0.426E+01	;
Diff3	-0.264E+00	;
Diff4	0.851E-02	;
}
CH2CHO-CH2O
{
Diff1	-0.197E+02	;
Diff2	0.427E+01	;
Diff3	-0.264E+00	;
Diff4	0.853E-02	;
}
CH2CHO-CH3O
{
Diff1	-0.204E+02	;
Diff2	0.459E+01	;
Diff3	-0.316E+00	;
Diff4	0.111E-01	;
}
CH2CHO-CO
{
Diff1	-0.200E+02	;
Diff2	0.494E+01	;
Diff3	-0.414E+00	;
Diff4	0.174E-01	;
}
CH2CHO-CO2
{
Diff1	-0.214E+02	;
Diff2	0.518E+01	;
Diff3	-0.418E+00	;
Diff4	0.165E-01	;
}
CH2CHO-C2H2
{
Diff1	-0.211E+02	;
Diff2	0.512E+01	;
Diff3	-0.414E+00	;
Diff4	0.165E-01	;
}
CH2CHO-C2H3
{
Diff1	-0.211E+02	;
Diff2	0.513E+01	;
Diff3	-0.416E+00	;
Diff4	0.166E-01	;
}
CH2CHO-C2H4
{
Diff1	-0.211E+02	;
Diff2	0.504E+01	;
Diff3	-0.393E+00	;
Diff4	0.152E-01	;
}
CH2CHO-C2H5
{
Diff1	-0.213E+02	;
Diff2	0.511E+01	;
Diff3	-0.406E+00	;
Diff4	0.159E-01	;
}
CH2CHO-C2H6
{
Diff1	-0.213E+02	;
Diff2	0.511E+01	;
Diff3	-0.407E+00	;
Diff4	0.159E-01	;
}
CH2CHO-CH2CHO
{
Diff1	-0.205E+02	;
Diff2	0.455E+01	;
Diff3	-0.308E+00	;
Diff4	0.107E-01	;
}
aC3H5-N2
{
Diff1	-0.190E+02	;
Diff2	0.458E+01	;
Diff3	-0.377E+00	;
Diff4	0.162E-01	;
}
aC3H5-AR
{
Diff1	-0.199E+02	;
Diff2	0.484E+01	;
Diff3	-0.405E+00	;
Diff4	0.172E-01	;
}
aC3H5-H
{
Diff1	-0.169E+02	;
Diff2	0.414E+01	;
Diff3	-0.278E+00	;
Diff4	0.101E-01	;
}
aC3H5-O
{
Diff1	-0.189E+02	;
Diff2	0.473E+01	;
Diff3	-0.400E+00	;
Diff4	0.174E-01	;
}
aC3H5-OH
{
Diff1	-0.189E+02	;
Diff2	0.471E+01	;
Diff3	-0.398E+00	;
Diff4	0.173E-01	;
}
aC3H5-HO2
{
Diff1	-0.193E+02	;
Diff2	0.469E+01	;
Diff3	-0.390E+00	;
Diff4	0.167E-01	;
}
aC3H5-H2
{
Diff1	-0.172E+02	;
Diff2	0.455E+01	;
Diff3	-0.389E+00	;
Diff4	0.175E-01	;
}
aC3H5-H2O
{
Diff1	-0.197E+02	;
Diff2	0.443E+01	;
Diff3	-0.298E+00	;
Diff4	0.105E-01	;
}
aC3H5-H2O2
{
Diff1	-0.194E+02	;
Diff2	0.469E+01	;
Diff3	-0.390E+00	;
Diff4	0.167E-01	;
}
aC3H5-O2
{
Diff1	-0.193E+02	;
Diff2	0.469E+01	;
Diff3	-0.390E+00	;
Diff4	0.168E-01	;
}
aC3H5-CH2
{
Diff1	-0.196E+02	;
Diff2	0.478E+01	;
Diff3	-0.392E+00	;
Diff4	0.164E-01	;
}
aC3H5-CH2*
{
Diff1	-0.196E+02	;
Diff2	0.478E+01	;
Diff3	-0.392E+00	;
Diff4	0.164E-01	;
}
aC3H5-CH3
{
Diff1	-0.196E+02	;
Diff2	0.479E+01	;
Diff3	-0.393E+00	;
Diff4	0.164E-01	;
}
aC3H5-CH4
{
Diff1	-0.196E+02	;
Diff2	0.478E+01	;
Diff3	-0.393E+00	;
Diff4	0.165E-01	;
}