/*--------------------------------*- C++ -*----------------------------------*\
  =========                 |
  \\      /  F ield         | OpenFOAM: The Open Source CFD Toolbox
   \\    /   O peration     | Website:  https://openfoam.org
    \\  /    A nd           | Version:  8
     \\/     M anipulation  |
\*---------------------------------------------------------------------------*/
FoamFile
{
    version         2;
    format          ascii;
    class           dictionary;
    location        "constant";
    object          chemistryProperties;
}
// * * * * * * * * * * * * * * * * * * * * * * * * * * * * * * * * * * * * * //

refmapping
{
    active          false;//true;
    mixtureFractionProperties
    {
        oxidizerMassFractions
        {
            N2              0.765;
            O2              0.23;
            CH4             0.005;
        }
        fuelMassFractions
        {
            NC12H26         1;
        }
        #include        "$FOAM_CASE/constant/foam_mech/thermo.foam"
    }
    tolerance       0.0001;
    deltaT          1;
}

chemistryType
{
    solver          ode;
    method          LB_CKJac;
}

chemistry       on;

initialChemicalTimeStep 1e-6;

loadbalancing
{
    active          true;
    log             false;//true;
}

odeCoeffs
{
    solver          seulex;
    absTol          1e-12;
    relTol          1e-2;
}

reactions {}

// ************************************************************************* //
// ************************************************************************* //
differentialDiffusion on;
thermalDiffusion off;

Prt  Prt [0 0 0 0 0] 0.7;
Sct  Sct [0 0 0 0 0] 0.7;