/*---------------------------------------------------------------------------*\
| =========                 |                                                 |
| \\      /  F ield         | OpenFOAM: The Open Source CFD Toolbox           |
|  \\    /   O peration     | Version:  1.0                                   |
|   \\  /    A nd           | Web:      http://www.openfoam.org               |
|    \\/     M anipulation  |                                                 |
\*---------------------------------------------------------------------------*/
FoamFile
{
version                         2.0;
format                          ascii;
class                           dictionary;
object                          speciesLambda;
}

// Scheme: transport fitting

N2
{
Lambda1	0.129E+02	;
Lambda2	-0.353E+01	;
Lambda3	0.646E+00	;
Lambda4	-0.319E-01	;
}
AR
{
Lambda1	-0.317E+01	;
Lambda2	0.347E+01	;
Lambda3	-0.375E+00	;
Lambda4	0.166E-01	;
}
H
{
Lambda1	-0.855E+00	;
Lambda2	0.365E+01	;
Lambda3	-0.398E+00	;
Lambda4	0.176E-01	;
}
O
{
Lambda1	0.169E+01	;
Lambda2	0.193E+01	;
Lambda3	-0.174E+00	;
Lambda4	0.784E-02	;
}
OH
{
Lambda1	0.150E+02	;
Lambda2	-0.363E+01	;
Lambda3	0.593E+00	;
Lambda4	-0.263E-01	;
}
HO2
{
Lambda1	-0.113E+01	;
Lambda2	0.234E+01	;
Lambda3	-0.163E+00	;
Lambda4	0.580E-02	;
}
H2
{
Lambda1	0.924E+01	;
Lambda2	-0.467E+00	;
Lambda3	0.116E+00	;
Lambda4	-0.260E-02	;
}
H2O
{
Lambda1	0.234E+02	;
Lambda2	-0.897E+01	;
Lambda3	0.153E+01	;
Lambda4	-0.759E-01	;
}
H2O2
{
Lambda1	0.883E+00	;
Lambda2	0.132E+01	;
Lambda3	0.192E-01	;
Lambda4	-0.442E-02	;
}
O2
{
Lambda1	-0.194E+01	;
Lambda2	0.289E+01	;
Lambda3	-0.271E+00	;
Lambda4	0.115E-01	;
}
CH2
{
Lambda1	0.129E+02	;
Lambda2	-0.374E+01	;
Lambda3	0.716E+00	;
Lambda4	-0.364E-01	;
}
CH2*
{
Lambda1	0.189E+02	;
Lambda2	-0.651E+01	;
Lambda3	0.113E+01	;
Lambda4	-0.570E-01	;
}
CH3
{
Lambda1	0.140E+02	;
Lambda2	-0.464E+01	;
Lambda3	0.908E+00	;
Lambda4	-0.477E-01	;
}
CH4
{
Lambda1	0.133E+02	;
Lambda2	-0.496E+01	;
Lambda3	0.103E+01	;
Lambda4	-0.563E-01	;
}
HCO
{
Lambda1	0.630E+01	;
Lambda2	-0.223E+01	;
Lambda3	0.637E+00	;
Lambda4	-0.381E-01	;
}
CH2O
{
Lambda1	0.538E+01	;
Lambda2	-0.239E+01	;
Lambda3	0.739E+00	;
Lambda4	-0.458E-01	;
}
CH3O
{
Lambda1	-0.111E+02	;
Lambda2	0.479E+01	;
Lambda3	-0.283E+00	;
Lambda4	0.234E-02	;
}
CO
{
Lambda1	0.119E+02	;
Lambda2	-0.315E+01	;
Lambda3	0.602E+00	;
Lambda4	-0.303E-01	;
}
CO2
{
Lambda1	-0.114E+02	;
Lambda2	0.588E+01	;
Lambda3	-0.568E+00	;
Lambda4	0.203E-01	;
}
C2H2
{
Lambda1	-0.769E+01	;
Lambda2	0.456E+01	;
Lambda3	-0.404E+00	;
Lambda4	0.141E-01	;
}
C2H3
{
Lambda1	-0.910E+01	;
Lambda2	0.454E+01	;
Lambda3	-0.318E+00	;
Lambda4	0.657E-02	;
}
C2H4
{
Lambda1	-0.146E+02	;
Lambda2	0.636E+01	;
Lambda3	-0.503E+00	;
Lambda4	0.126E-01	;
}
C2H5
{
Lambda1	-0.894E+01	;
Lambda2	0.402E+01	;
Lambda3	-0.184E+00	;
Lambda4	-0.196E-02	;
}
C2H6
{
Lambda1	-0.110E+02	;
Lambda2	0.470E+01	;
Lambda3	-0.252E+00	;
Lambda4	0.153E-03	;
}
CH2CHO
{
Lambda1	-0.627E+01	;
Lambda2	0.291E+01	;
Lambda3	-0.436E-01	;
Lambda4	-0.777E-02	;
}
aC3H5
{
Lambda1	-0.214E+02	;
Lambda2	0.941E+01	;
Lambda3	-0.966E+00	;
Lambda4	0.355E-01	;
}
C3H6
{
Lambda1	-0.170E+02	;
Lambda2	0.736E+01	;
Lambda3	-0.653E+00	;
Lambda4	0.200E-01	;
}
nC3H7
{
Lambda1	-0.193E+02	;
Lambda2	0.839E+01	;
Lambda3	-0.805E+00	;
Lambda4	0.274E-01	;
}
C2H3CHO
{
Lambda1	-0.182E+02	;
Lambda2	0.764E+01	;
Lambda3	-0.680E+00	;
Lambda4	0.204E-01	;
}
C4H7
{
Lambda1	-0.165E+02	;
Lambda2	0.712E+01	;
Lambda3	-0.616E+00	;
Lambda4	0.181E-01	;
}
C4H81
{
Lambda1	-0.146E+02	;
Lambda2	0.591E+01	;
Lambda3	-0.394E+00	;
Lambda4	0.555E-02	;
}
pC4H9
{
Lambda1	-0.162E+02	;
Lambda2	0.688E+01	;
Lambda3	-0.563E+00	;
Lambda4	0.149E-01	;
}
C5H9
{
Lambda1	-0.346E+02	;
Lambda2	0.141E+02	;
Lambda3	-0.151E+01	;
Lambda4	0.570E-01	;
}
C5H10
{
Lambda1	-0.187E+02	;
Lambda2	0.765E+01	;
Lambda3	-0.646E+00	;
Lambda4	0.178E-01	;
}
PXC5H11
{
Lambda1	-0.157E+02	;
Lambda2	0.638E+01	;
Lambda3	-0.467E+00	;
Lambda4	0.946E-02	;
}
C6H12
{
Lambda1	-0.176E+02	;
Lambda2	0.710E+01	;
Lambda3	-0.561E+00	;
Lambda4	0.137E-01	;
}
PXC6H13
{
Lambda1	-0.150E+02	;
Lambda2	0.601E+01	;
Lambda3	-0.408E+00	;
Lambda4	0.650E-02	;
}
C7H14
{
Lambda1	-0.165E+02	;
Lambda2	0.656E+01	;
Lambda3	-0.480E+00	;
Lambda4	0.970E-02	;
}
PXC7H15
{
Lambda1	-0.142E+02	;
Lambda2	0.560E+01	;
Lambda3	-0.345E+00	;
Lambda4	0.339E-02	;
}
C8H16
{
Lambda1	-0.150E+02	;
Lambda2	0.586E+01	;
Lambda3	-0.377E+00	;
Lambda4	0.481E-02	;
}
PXC8H17
{
Lambda1	-0.131E+02	;
Lambda2	0.506E+01	;
Lambda3	-0.264E+00	;
Lambda4	-0.454E-03	;
}
C9H18
{
Lambda1	-0.138E+02	;
Lambda2	0.531E+01	;
Lambda3	-0.297E+00	;
Lambda4	0.102E-02	;
}
PXC9H19
{
Lambda1	-0.121E+02	;
Lambda2	0.458E+01	;
Lambda3	-0.195E+00	;
Lambda4	-0.373E-02	;
}
C10H20
{
Lambda1	-0.126E+02	;
Lambda2	0.476E+01	;
Lambda3	-0.219E+00	;
Lambda4	-0.265E-02	;
}
PXC10H21
{
Lambda1	-0.109E+02	;
Lambda2	0.406E+01	;
Lambda3	-0.121E+00	;
Lambda4	-0.719E-02	;
}
NC12H26
{
Lambda1	-0.936E+01	;
Lambda2	0.332E+01	;
Lambda3	-0.108E-01	;
Lambda4	-0.124E-01	;
}
PXC12H25
{
Lambda1	-0.890E+01	;
Lambda2	0.315E+01	;
Lambda3	0.993E-02	;
Lambda4	-0.132E-01	;
}
SXC12H25
{
Lambda1	-0.899E+01	;
Lambda2	0.315E+01	;
Lambda3	0.117E-01	;
Lambda4	-0.134E-01	;
}
S3XC12H25
{
Lambda1	-0.899E+01	;
Lambda2	0.315E+01	;
Lambda3	0.117E-01	;
Lambda4	-0.134E-01	;
}
C12H24
{
Lambda1	-0.105E+02	;
Lambda2	0.383E+01	;
Lambda3	-0.858E-01	;
Lambda4	-0.880E-02	;
}
C12H25O2
{
Lambda1	-0.109E+02	;
Lambda2	0.422E+01	;
Lambda3	-0.188E+00	;
Lambda4	-0.169E-02	;
}
C12OOH
{
Lambda1	-0.922E+01	;
Lambda2	0.359E+01	;
Lambda3	-0.111E+00	;
Lambda4	-0.473E-02	;
}
O2C12H24OOH
{
Lambda1	-0.923E+01	;
Lambda2	0.359E+01	;
Lambda3	-0.119E+00	;
Lambda4	-0.406E-02	;
}
OC12H23OOH
{
Lambda1	-0.684E+01	;
Lambda2	0.235E+01	;
Lambda3	0.890E-01	;
Lambda4	-0.152E-01	;
}
