/*---------------------------------------------------------------------------*\
| =========                 |                                                 |
| \\      /  F ield         | OpenFOAM: The Open Source CFD Toolbox           |
|  \\    /   O peration     | Version:  1.0                                   |
|   \\  /    A nd           | Web:      http://www.openfoam.org               |
|    \\/     M anipulation  |                                                 |
\*---------------------------------------------------------------------------*/
FoamFile
{
version                         2.0;
format                          ascii;
class                           dictionary;
object                          speciesMu;
}

// Scheme: transport fitting

N2
{
Mu1	-0.166E+02	;
Mu2	0.239E+01	;
Mu3	-0.234E+00	;
Mu4	0.105E-01	;
}
AR
{
Mu1	-0.190E+02	;
Mu2	0.347E+01	;
Mu3	-0.375E+00	;
Mu4	0.166E-01	;
}
H
{
Mu1	-0.204E+02	;
Mu2	0.365E+01	;
Mu3	-0.398E+00	;
Mu4	0.176E-01	;
}
O
{
Mu1	-0.151E+02	;
Mu2	0.193E+01	;
Mu3	-0.174E+00	;
Mu4	0.784E-02	;
}
OH
{
Mu1	-0.151E+02	;
Mu2	0.193E+01	;
Mu3	-0.174E+00	;
Mu4	0.784E-02	;
}
HO2
{
Mu1	-0.171E+02	;
Mu2	0.268E+01	;
Mu3	-0.272E+00	;
Mu4	0.121E-01	;
}
H2
{
Mu1	-0.138E+02	;
Mu2	0.100E+01	;
Mu3	-0.502E-01	;
Mu4	0.233E-02	;
}
H2O
{
Mu1	-0.106E+02	;
Mu2	-0.138E+01	;
Mu3	0.421E+00	;
Mu4	-0.241E-01	;
}
H2O2
{
Mu1	-0.171E+02	;
Mu2	0.268E+01	;
Mu3	-0.272E+00	;
Mu4	0.121E-01	;
}
O2
{
Mu1	-0.172E+02	;
Mu2	0.268E+01	;
Mu3	-0.272E+00	;
Mu4	0.121E-01	;
}
CH2
{
Mu1	-0.203E+02	;
Mu2	0.363E+01	;
Mu3	-0.395E+00	;
Mu4	0.175E-01	;
}
CH2*
{
Mu1	-0.203E+02	;
Mu2	0.363E+01	;
Mu3	-0.395E+00	;
Mu4	0.175E-01	;
}
CH3
{
Mu1	-0.202E+02	;
Mu2	0.363E+01	;
Mu3	-0.395E+00	;
Mu4	0.175E-01	;
}
CH4
{
Mu1	-0.200E+02	;
Mu2	0.357E+01	;
Mu3	-0.387E+00	;
Mu4	0.171E-01	;
}
HCO
{
Mu1	-0.199E+02	;
Mu2	0.270E+01	;
Mu3	-0.167E+00	;
Mu4	0.321E-02	;
}
CH2O
{
Mu1	-0.199E+02	;
Mu2	0.270E+01	;
Mu3	-0.167E+00	;
Mu4	0.321E-02	;
}
CH3O
{
Mu1	-0.200E+02	;
Mu2	0.286E+01	;
Mu3	-0.202E+00	;
Mu4	0.536E-02	;
}
CO
{
Mu1	-0.166E+02	;
Mu2	0.240E+01	;
Mu3	-0.236E+00	;
Mu4	0.105E-01	;
}
CO2
{
Mu1	-0.240E+02	;
Mu2	0.513E+01	;
Mu3	-0.572E+00	;
Mu4	0.244E-01	;
}
C2H2
{
Mu1	-0.233E+02	;
Mu2	0.479E+01	;
Mu3	-0.536E+00	;
Mu4	0.232E-01	;
}
C2H3
{
Mu1	-0.233E+02	;
Mu2	0.479E+01	;
Mu3	-0.536E+00	;
Mu4	0.232E-01	;
}
C2H4
{
Mu1	-0.250E+02	;
Mu2	0.533E+01	;
Mu3	-0.589E+00	;
Mu4	0.247E-01	;
}
C2H5
{
Mu1	-0.246E+02	;
Mu2	0.518E+01	;
Mu3	-0.577E+00	;
Mu4	0.245E-01	;
}
C2H6
{
Mu1	-0.246E+02	;
Mu2	0.518E+01	;
Mu3	-0.577E+00	;
Mu4	0.245E-01	;
}
CH2CHO
{
Mu1	-0.223E+02	;
Mu2	0.387E+01	;
Mu3	-0.342E+00	;
Mu4	0.117E-01	;
}
aC3H5
{
Mu1	-0.251E+02	;
Mu2	0.530E+01	;
Mu3	-0.588E+00	;
Mu4	0.249E-01	;
}
C3H6
{
Mu1	-0.251E+02	;
Mu2	0.530E+01	;
Mu3	-0.588E+00	;
Mu4	0.249E-01	;
}
nC3H7
{
Mu1	-0.251E+02	;
Mu2	0.530E+01	;
Mu3	-0.588E+00	;
Mu4	0.249E-01	;
}
C2H3CHO
{
Mu1	-0.248E+02	;
Mu2	0.494E+01	;
Mu3	-0.511E+00	;
Mu4	0.203E-01	;
}
C4H7
{
Mu1	-0.248E+02	;
Mu2	0.494E+01	;
Mu3	-0.511E+00	;
Mu4	0.203E-01	;
}
C4H81
{
Mu1	-0.248E+02	;
Mu2	0.494E+01	;
Mu3	-0.511E+00	;
Mu4	0.203E-01	;
}
pC4H9
{
Mu1	-0.248E+02	;
Mu2	0.494E+01	;
Mu3	-0.511E+00	;
Mu4	0.203E-01	;
}
C5H9
{
Mu1	-0.223E+02	;
Mu2	0.366E+01	;
Mu3	-0.310E+00	;
Mu4	0.102E-01	;
}
C5H10
{
Mu1	-0.223E+02	;
Mu2	0.366E+01	;
Mu3	-0.310E+00	;
Mu4	0.102E-01	;
}
PXC5H11
{
Mu1	-0.219E+02	;
Mu2	0.349E+01	;
Mu3	-0.285E+00	;
Mu4	0.893E-02	;
}
C6H12
{
Mu1	-0.199E+02	;
Mu2	0.257E+01	;
Mu3	-0.147E+00	;
Mu4	0.226E-02	;
}
PXC6H13
{
Mu1	-0.197E+02	;
Mu2	0.243E+01	;
Mu3	-0.127E+00	;
Mu4	0.125E-02	;
}
C7H14
{
Mu1	-0.176E+02	;
Mu2	0.150E+01	;
Mu3	0.107E-01	;
Mu4	-0.532E-02	;
}
PXC7H15
{
Mu1	-0.174E+02	;
Mu2	0.138E+01	;
Mu3	0.282E-01	;
Mu4	-0.616E-02	;
}
C8H16
{
Mu1	-0.152E+02	;
Mu2	0.396E+00	;
Mu3	0.170E+00	;
Mu4	-0.129E-01	;
}
PXC8H17
{
Mu1	-0.150E+02	;
Mu2	0.303E+00	;
Mu3	0.183E+00	;
Mu4	-0.135E-01	;
}
C9H18
{
Mu1	-0.131E+02	;
Mu2	-0.555E+00	;
Mu3	0.307E+00	;
Mu4	-0.193E-01	;
}
PXC9H19
{
Mu1	-0.129E+02	;
Mu2	-0.648E+00	;
Mu3	0.320E+00	;
Mu4	-0.199E-01	;
}
C10H20
{
Mu1	-0.111E+02	;
Mu2	-0.141E+01	;
Mu3	0.429E+00	;
Mu4	-0.249E-01	;
}
PXC10H21
{
Mu1	-0.108E+02	;
Mu2	-0.155E+01	;
Mu3	0.447E+00	;
Mu4	-0.258E-01	;
}
NC12H26
{
Mu1	-0.728E+01	;
Mu2	-0.310E+01	;
Mu3	0.666E+00	;
Mu4	-0.359E-01	;
}
PXC12H25
{
Mu1	-0.729E+01	;
Mu2	-0.310E+01	;
Mu3	0.666E+00	;
Mu4	-0.359E-01	;
}
SXC12H25
{
Mu1	-0.729E+01	;
Mu2	-0.310E+01	;
Mu3	0.666E+00	;
Mu4	-0.359E-01	;
}
S3XC12H25
{
Mu1	-0.729E+01	;
Mu2	-0.310E+01	;
Mu3	0.666E+00	;
Mu4	-0.359E-01	;
}
C12H24
{
Mu1	-0.788E+01	;
Mu2	-0.285E+01	;
Mu3	0.631E+00	;
Mu4	-0.343E-01	;
}
C12H25O2
{
Mu1	-0.660E+01	;
Mu2	-0.337E+01	;
Mu3	0.703E+00	;
Mu4	-0.375E-01	;
}
C12OOH
{
Mu1	-0.660E+01	;
Mu2	-0.337E+01	;
Mu3	0.703E+00	;
Mu4	-0.375E-01	;
}
O2C12H24OOH
{
Mu1	-0.383E+01	;
Mu2	-0.456E+01	;
Mu3	0.868E+00	;
Mu4	-0.450E-01	;
}
OC12H23OOH
{
Mu1	-0.526E+01	;
Mu2	-0.395E+01	;
Mu3	0.784E+00	;
Mu4	-0.412E-01	;
}
