/*--------------------------------*- C++ -*----------------------------------*\
| =========                 |                                                 |
| \\      /  F ield         | OpenFOAM: The Open Source CFD Toolbox           |
|  \\    /   O peration     | Version:  2.3.0                                 |
|   \\  /    A nd           | Web:      www.OpenFOAM.org                      |
|    \\/     M anipulation  |                                                 |
\*---------------------------------------------------------------------------*/
FoamFile
{
    version     2.0;
    format      ascii;
    class       dictionary;
    location    "constant";
    object      thermoDiff;
}

// Scheme: transport fitting

H-N2
{
ThermDiff_1	0.202E+00	;
ThermDiff_2	0.563E-03	;
ThermDiff_3	-0.309E-06	;
ThermDiff_4	0.523E-10	;
}
H-AR
{
ThermDiff_1	0.122E+00	;
ThermDiff_2	0.690E-03	;
ThermDiff_3	-0.365E-06	;
ThermDiff_4	0.603E-10	;
}
H-H
{
ThermDiff_1	0.000E+00	;
ThermDiff_2	0.000E+00	;
ThermDiff_3	0.000E+00	;
ThermDiff_4	0.000E+00	;
}
H-O
{
ThermDiff_1	0.235E+00	;
ThermDiff_2	0.466E-03	;
ThermDiff_3	-0.261E-06	;
ThermDiff_4	0.449E-10	;
}
H-OH
{
ThermDiff_1	0.237E+00	;
ThermDiff_2	0.469E-03	;
ThermDiff_3	-0.263E-06	;
ThermDiff_4	0.453E-10	;
}
H-HO2
{
ThermDiff_1	0.180E+00	;
ThermDiff_2	0.603E-03	;
ThermDiff_3	-0.327E-06	;
ThermDiff_4	0.550E-10	;
}
H-H2
{
ThermDiff_1	0.144E+00	;
ThermDiff_2	0.800E-04	;
ThermDiff_3	-0.490E-07	;
ThermDiff_4	0.914E-11	;
}
H-H2O
{
ThermDiff_1	-0.174E+00	;
ThermDiff_2	0.862E-03	;
ThermDiff_3	-0.380E-06	;
ThermDiff_4	0.560E-10	;
}
H-H2O2
{
ThermDiff_1	0.181E+00	;
ThermDiff_2	0.604E-03	;
ThermDiff_3	-0.328E-06	;
ThermDiff_4	0.551E-10	;
}
H-O2
{
ThermDiff_1	0.180E+00	;
ThermDiff_2	0.602E-03	;
ThermDiff_3	-0.326E-06	;
ThermDiff_4	0.549E-10	;
}
H-CH2
{
ThermDiff_1	0.991E-01	;
ThermDiff_2	0.644E-03	;
ThermDiff_3	-0.338E-06	;
ThermDiff_4	0.557E-10	;
}
H-CH2*
{
ThermDiff_1	0.991E-01	;
ThermDiff_2	0.644E-03	;
ThermDiff_3	-0.338E-06	;
ThermDiff_4	0.557E-10	;
}
H-CH3
{
ThermDiff_1	0.100E+00	;
ThermDiff_2	0.650E-03	;
ThermDiff_3	-0.342E-06	;
ThermDiff_4	0.563E-10	;
}
H-CH4
{
ThermDiff_1	0.105E+00	;
ThermDiff_2	0.651E-03	;
ThermDiff_3	-0.343E-06	;
ThermDiff_4	0.565E-10	;
}
H-HCO
{
ThermDiff_1	-0.161E+00	;
ThermDiff_2	0.904E-03	;
ThermDiff_3	-0.407E-06	;
ThermDiff_4	0.609E-10	;
}
H-CH2O
{
ThermDiff_1	-0.161E+00	;
ThermDiff_2	0.906E-03	;
ThermDiff_3	-0.408E-06	;
ThermDiff_4	0.611E-10	;
}
H-CH3O
{
ThermDiff_1	-0.131E+00	;
ThermDiff_2	0.904E-03	;
ThermDiff_3	-0.418E-06	;
ThermDiff_4	0.636E-10	;
}
H-CO
{
ThermDiff_1	0.200E+00	;
ThermDiff_2	0.565E-03	;
ThermDiff_3	-0.309E-06	;
ThermDiff_4	0.524E-10	;
}
H-CO2
{
ThermDiff_1	-0.200E-01	;
ThermDiff_2	0.850E-03	;
ThermDiff_3	-0.421E-06	;
ThermDiff_4	0.668E-10	;
}
H-C2H2
{
ThermDiff_1	0.163E-01	;
ThermDiff_2	0.790E-03	;
ThermDiff_3	-0.398E-06	;
ThermDiff_4	0.639E-10	;
}
H-C2H3
{
ThermDiff_1	0.164E-01	;
ThermDiff_2	0.792E-03	;
ThermDiff_3	-0.399E-06	;
ThermDiff_4	0.641E-10	;
}
H-C2H4
{
ThermDiff_1	-0.509E-01	;
ThermDiff_2	0.854E-03	;
ThermDiff_3	-0.416E-06	;
ThermDiff_4	0.653E-10	;
}
H-C2H5
{
ThermDiff_1	-0.272E-01	;
ThermDiff_2	0.837E-03	;
ThermDiff_3	-0.413E-06	;
ThermDiff_4	0.653E-10	;
}
H-C2H6
{
ThermDiff_1	-0.272E-01	;
ThermDiff_2	0.839E-03	;
ThermDiff_3	-0.414E-06	;
ThermDiff_4	0.655E-10	;
}
H-CH2CHO
{
ThermDiff_1	-0.142E+00	;
ThermDiff_2	0.922E-03	;
ThermDiff_3	-0.424E-06	;
ThermDiff_4	0.642E-10	;
}
H-aC3H5
{
ThermDiff_1	-0.405E-01	;
ThermDiff_2	0.865E-03	;
ThermDiff_3	-0.424E-06	;
ThermDiff_4	0.668E-10	;
}
H-C3H6
{
ThermDiff_1	-0.406E-01	;
ThermDiff_2	0.866E-03	;
ThermDiff_3	-0.424E-06	;
ThermDiff_4	0.669E-10	;
}
H-nC3H7
{
ThermDiff_1	-0.406E-01	;
ThermDiff_2	0.867E-03	;
ThermDiff_3	-0.425E-06	;
ThermDiff_4	0.669E-10	;
}
H-C2H3CHO
{
ThermDiff_1	-0.105E+00	;
ThermDiff_2	0.919E-03	;
ThermDiff_3	-0.434E-06	;
ThermDiff_4	0.669E-10	;
}
H-C4H7
{
ThermDiff_1	-0.105E+00	;
ThermDiff_2	0.918E-03	;
ThermDiff_3	-0.433E-06	;
ThermDiff_4	0.668E-10	;
}
H-C4H81
{
ThermDiff_1	-0.105E+00	;
ThermDiff_2	0.919E-03	;
ThermDiff_3	-0.434E-06	;
ThermDiff_4	0.669E-10	;
}
H-pC4H9
{
ThermDiff_1	-0.105E+00	;
ThermDiff_2	0.919E-03	;
ThermDiff_3	-0.434E-06	;
ThermDiff_4	0.669E-10	;
}
H-C5H9
{
ThermDiff_1	-0.149E+00	;
ThermDiff_2	0.940E-03	;
ThermDiff_3	-0.430E-06	;
ThermDiff_4	0.650E-10	;
}
H-C5H10
{
ThermDiff_1	-0.150E+00	;
ThermDiff_2	0.940E-03	;
ThermDiff_3	-0.430E-06	;
ThermDiff_4	0.650E-10	;
}
H-PXC5H11
{
ThermDiff_1	-0.153E+00	;
ThermDiff_2	0.941E-03	;
ThermDiff_3	-0.429E-06	;
ThermDiff_4	0.647E-10	;
}
H-C6H12
{
ThermDiff_1	-0.171E+00	;
ThermDiff_2	0.946E-03	;
ThermDiff_3	-0.425E-06	;
ThermDiff_4	0.635E-10	;
}
H-PXC6H13
{
ThermDiff_1	-0.173E+00	;
ThermDiff_2	0.946E-03	;
ThermDiff_3	-0.424E-06	;
ThermDiff_4	0.633E-10	;
}
H-C7H14
{
ThermDiff_1	-0.187E+00	;
ThermDiff_2	0.946E-03	;
ThermDiff_3	-0.418E-06	;
ThermDiff_4	0.619E-10	;
}
H-PXC7H15
{
ThermDiff_1	-0.189E+00	;
ThermDiff_2	0.946E-03	;
ThermDiff_3	-0.417E-06	;
ThermDiff_4	0.617E-10	;
}
H-C8H16
{
ThermDiff_1	-0.200E+00	;
ThermDiff_2	0.943E-03	;
ThermDiff_3	-0.411E-06	;
ThermDiff_4	0.602E-10	;
}
H-PXC8H17
{
ThermDiff_1	-0.201E+00	;
ThermDiff_2	0.943E-03	;
ThermDiff_3	-0.410E-06	;
ThermDiff_4	0.601E-10	;
}
H-C9H18
{
ThermDiff_1	-0.211E+00	;
ThermDiff_2	0.938E-03	;
ThermDiff_3	-0.403E-06	;
ThermDiff_4	0.586E-10	;
}
H-PXC9H19
{
ThermDiff_1	-0.212E+00	;
ThermDiff_2	0.938E-03	;
ThermDiff_3	-0.402E-06	;
ThermDiff_4	0.585E-10	;
}
H-C10H20
{
ThermDiff_1	-0.219E+00	;
ThermDiff_2	0.932E-03	;
ThermDiff_3	-0.396E-06	;
ThermDiff_4	0.571E-10	;
}
H-PXC10H21
{
ThermDiff_1	-0.220E+00	;
ThermDiff_2	0.931E-03	;
ThermDiff_3	-0.395E-06	;
ThermDiff_4	0.569E-10	;
}
H-NC12H26
{
ThermDiff_1	-0.232E+00	;
ThermDiff_2	0.916E-03	;
ThermDiff_3	-0.379E-06	;
ThermDiff_4	0.538E-10	;
}
H-PXC12H25
{
ThermDiff_1	-0.232E+00	;
ThermDiff_2	0.916E-03	;
ThermDiff_3	-0.379E-06	;
ThermDiff_4	0.538E-10	;
}
H-SXC12H25
{
ThermDiff_1	-0.232E+00	;
ThermDiff_2	0.916E-03	;
ThermDiff_3	-0.379E-06	;
ThermDiff_4	0.538E-10	;
}
H-S3XC12H25
{
ThermDiff_1	-0.232E+00	;
ThermDiff_2	0.916E-03	;
ThermDiff_3	-0.379E-06	;
ThermDiff_4	0.538E-10	;
}
H-C12H24
{
ThermDiff_1	-0.231E+00	;
ThermDiff_2	0.919E-03	;
ThermDiff_3	-0.382E-06	;
ThermDiff_4	0.543E-10	;
}
H-C12H25O2
{
ThermDiff_1	-0.235E+00	;
ThermDiff_2	0.914E-03	;
ThermDiff_3	-0.377E-06	;
ThermDiff_4	0.533E-10	;
}
H-C12OOH
{
ThermDiff_1	-0.235E+00	;
ThermDiff_2	0.914E-03	;
ThermDiff_3	-0.377E-06	;
ThermDiff_4	0.533E-10	;
}
H-O2C12H24OOH
{
ThermDiff_1	-0.242E+00	;
ThermDiff_2	0.899E-03	;
ThermDiff_3	-0.363E-06	;
ThermDiff_4	0.507E-10	;
}
H-OC12H23OOH
{
ThermDiff_1	-0.239E+00	;
ThermDiff_2	0.907E-03	;
ThermDiff_3	-0.370E-06	;
ThermDiff_4	0.521E-10	;
}
H2-N2
{
ThermDiff_1	0.431E+00	;
ThermDiff_2	0.921E-04	;
ThermDiff_3	-0.595E-07	;
ThermDiff_4	0.121E-10	;
}
H2-AR
{
ThermDiff_1	0.401E+00	;
ThermDiff_2	0.197E-03	;
ThermDiff_3	-0.122E-06	;
ThermDiff_4	0.229E-10	;
}
H2-H
{
ThermDiff_1	-0.144E+00	;
ThermDiff_2	-0.800E-04	;
ThermDiff_3	0.490E-07	;
ThermDiff_4	-0.914E-11	;
}
H2-O
{
ThermDiff_1	0.407E+00	;
ThermDiff_2	0.385E-04	;
ThermDiff_3	-0.255E-07	;
ThermDiff_4	0.586E-11	;
}
H2-OH
{
ThermDiff_1	0.413E+00	;
ThermDiff_2	0.391E-04	;
ThermDiff_3	-0.259E-07	;
ThermDiff_4	0.595E-11	;
}
H2-HO2
{
ThermDiff_1	0.428E+00	;
ThermDiff_2	0.121E-03	;
ThermDiff_3	-0.770E-07	;
ThermDiff_4	0.153E-10	;
}
H2-H2
{
ThermDiff_1	0.000E+00	;
ThermDiff_2	0.000E+00	;
ThermDiff_3	0.000E+00	;
ThermDiff_4	0.000E+00	;
}
H2-H2O
{
ThermDiff_1	0.227E-01	;
ThermDiff_2	0.673E-03	;
ThermDiff_3	-0.341E-06	;
ThermDiff_4	0.548E-10	;
}
H2-H2O2
{
ThermDiff_1	0.430E+00	;
ThermDiff_2	0.121E-03	;
ThermDiff_3	-0.773E-07	;
ThermDiff_4	0.153E-10	;
}
H2-O2
{
ThermDiff_1	0.427E+00	;
ThermDiff_2	0.120E-03	;
ThermDiff_3	-0.767E-07	;
ThermDiff_4	0.152E-10	;
}
H2-CH2
{
ThermDiff_1	0.325E+00	;
ThermDiff_2	0.178E-03	;
ThermDiff_3	-0.109E-06	;
ThermDiff_4	0.204E-10	;
}
H2-CH2*
{
ThermDiff_1	0.325E+00	;
ThermDiff_2	0.178E-03	;
ThermDiff_3	-0.109E-06	;
ThermDiff_4	0.204E-10	;
}
H2-CH3
{
ThermDiff_1	0.331E+00	;
ThermDiff_2	0.181E-03	;
ThermDiff_3	-0.111E-06	;
ThermDiff_4	0.208E-10	;
}
H2-CH4
{
ThermDiff_1	0.340E+00	;
ThermDiff_2	0.179E-03	;
ThermDiff_3	-0.110E-06	;
ThermDiff_4	0.206E-10	;
}
H2-HCO
{
ThermDiff_1	0.122E+00	;
ThermDiff_2	0.618E-03	;
ThermDiff_3	-0.328E-06	;
ThermDiff_4	0.545E-10	;
}
H2-CH2O
{
ThermDiff_1	0.123E+00	;
ThermDiff_2	0.621E-03	;
ThermDiff_3	-0.330E-06	;
ThermDiff_4	0.547E-10	;
}
H2-CH3O
{
ThermDiff_1	0.140E+00	;
ThermDiff_2	0.601E-03	;
ThermDiff_3	-0.322E-06	;
ThermDiff_4	0.537E-10	;
}
H2-CO
{
ThermDiff_1	0.431E+00	;
ThermDiff_2	0.936E-04	;
ThermDiff_3	-0.604E-07	;
ThermDiff_4	0.123E-10	;
}
H2-CO2
{
ThermDiff_1	0.293E+00	;
ThermDiff_2	0.401E-03	;
ThermDiff_3	-0.231E-06	;
ThermDiff_4	0.405E-10	;
}
H2-C2H2
{
ThermDiff_1	0.306E+00	;
ThermDiff_2	0.325E-03	;
ThermDiff_3	-0.190E-06	;
ThermDiff_4	0.339E-10	;
}
H2-C2H3
{
ThermDiff_1	0.307E+00	;
ThermDiff_2	0.326E-03	;
ThermDiff_3	-0.191E-06	;
ThermDiff_4	0.341E-10	;
}
H2-C2H4
{
ThermDiff_1	0.249E+00	;
ThermDiff_2	0.429E-03	;
ThermDiff_3	-0.243E-06	;
ThermDiff_4	0.421E-10	;
}
H2-C2H5
{
ThermDiff_1	0.273E+00	;
ThermDiff_2	0.394E-03	;
ThermDiff_3	-0.226E-06	;
ThermDiff_4	0.395E-10	;
}
H2-C2H6
{
ThermDiff_1	0.274E+00	;
ThermDiff_2	0.396E-03	;
ThermDiff_3	-0.227E-06	;
ThermDiff_4	0.397E-10	;
}
H2-CH2CHO
{
ThermDiff_1	0.160E+00	;
ThermDiff_2	0.604E-03	;
ThermDiff_3	-0.326E-06	;
ThermDiff_4	0.545E-10	;
}
H2-aC3H5
{
ThermDiff_1	0.272E+00	;
ThermDiff_2	0.431E-03	;
ThermDiff_3	-0.245E-06	;
ThermDiff_4	0.427E-10	;
}
H2-C3H6
{
ThermDiff_1	0.273E+00	;
ThermDiff_2	0.432E-03	;
ThermDiff_3	-0.246E-06	;
ThermDiff_4	0.428E-10	;
}
H2-nC3H7
{
ThermDiff_1	0.273E+00	;
ThermDiff_2	0.433E-03	;
ThermDiff_3	-0.246E-06	;
ThermDiff_4	0.429E-10	;
}
H2-C2H3CHO
{
ThermDiff_1	0.211E+00	;
ThermDiff_2	0.548E-03	;
ThermDiff_3	-0.302E-06	;
ThermDiff_4	0.513E-10	;
}
H2-C4H7
{
ThermDiff_1	0.211E+00	;
ThermDiff_2	0.547E-03	;
ThermDiff_3	-0.301E-06	;
ThermDiff_4	0.512E-10	;
}
H2-C4H81
{
ThermDiff_1	0.212E+00	;
ThermDiff_2	0.548E-03	;
ThermDiff_3	-0.302E-06	;
ThermDiff_4	0.513E-10	;
}
H2-pC4H9
{
ThermDiff_1	0.212E+00	;
ThermDiff_2	0.549E-03	;
ThermDiff_3	-0.302E-06	;
ThermDiff_4	0.514E-10	;
}
H2-C5H9
{
ThermDiff_1	0.158E+00	;
ThermDiff_2	0.636E-03	;
ThermDiff_3	-0.341E-06	;
ThermDiff_4	0.571E-10	;
}
H2-C5H10
{
ThermDiff_1	0.159E+00	;
ThermDiff_2	0.636E-03	;
ThermDiff_3	-0.342E-06	;
ThermDiff_4	0.571E-10	;
}
H2-PXC5H11
{
ThermDiff_1	0.153E+00	;
ThermDiff_2	0.644E-03	;
ThermDiff_3	-0.345E-06	;
ThermDiff_4	0.576E-10	;
}
H2-C6H12
{
ThermDiff_1	0.130E+00	;
ThermDiff_2	0.682E-03	;
ThermDiff_3	-0.362E-06	;
ThermDiff_4	0.599E-10	;
}
H2-PXC6H13
{
ThermDiff_1	0.127E+00	;
ThermDiff_2	0.687E-03	;
ThermDiff_3	-0.364E-06	;
ThermDiff_4	0.602E-10	;
}
H2-C7H14
{
ThermDiff_1	0.106E+00	;
ThermDiff_2	0.719E-03	;
ThermDiff_3	-0.377E-06	;
ThermDiff_4	0.620E-10	;
}
H2-PXC7H15
{
ThermDiff_1	0.103E+00	;
ThermDiff_2	0.723E-03	;
ThermDiff_3	-0.379E-06	;
ThermDiff_4	0.622E-10	;
}
H2-C8H16
{
ThermDiff_1	0.845E-01	;
ThermDiff_2	0.749E-03	;
ThermDiff_3	-0.389E-06	;
ThermDiff_4	0.636E-10	;
}
H2-PXC8H17
{
ThermDiff_1	0.826E-01	;
ThermDiff_2	0.752E-03	;
ThermDiff_3	-0.390E-06	;
ThermDiff_4	0.638E-10	;
}
H2-C9H18
{
ThermDiff_1	0.660E-01	;
ThermDiff_2	0.774E-03	;
ThermDiff_3	-0.399E-06	;
ThermDiff_4	0.649E-10	;
}
H2-PXC9H19
{
ThermDiff_1	0.643E-01	;
ThermDiff_2	0.776E-03	;
ThermDiff_3	-0.400E-06	;
ThermDiff_4	0.650E-10	;
}
H2-C10H20
{
ThermDiff_1	0.503E-01	;
ThermDiff_2	0.795E-03	;
ThermDiff_3	-0.407E-06	;
ThermDiff_4	0.658E-10	;
}
H2-PXC10H21
{
ThermDiff_1	0.479E-01	;
ThermDiff_2	0.797E-03	;
ThermDiff_3	-0.408E-06	;
ThermDiff_4	0.660E-10	;
}
H2-NC12H26
{
ThermDiff_1	0.196E-01	;
ThermDiff_2	0.831E-03	;
ThermDiff_3	-0.420E-06	;
ThermDiff_4	0.673E-10	;
}
H2-PXC12H25
{
ThermDiff_1	0.196E-01	;
ThermDiff_2	0.831E-03	;
ThermDiff_3	-0.420E-06	;
ThermDiff_4	0.673E-10	;
}
H2-SXC12H25
{
ThermDiff_1	0.196E-01	;
ThermDiff_2	0.831E-03	;
ThermDiff_3	-0.420E-06	;
ThermDiff_4	0.673E-10	;
}
H2-S3XC12H25
{
ThermDiff_1	0.196E-01	;
ThermDiff_2	0.831E-03	;
ThermDiff_3	-0.420E-06	;
ThermDiff_4	0.673E-10	;
}
H2-C12H24
{
ThermDiff_1	0.242E-01	;
ThermDiff_2	0.826E-03	;
ThermDiff_3	-0.418E-06	;
ThermDiff_4	0.672E-10	;
}
H2-C12H25O2
{
ThermDiff_1	0.150E-01	;
ThermDiff_2	0.839E-03	;
ThermDiff_3	-0.423E-06	;
ThermDiff_4	0.677E-10	;
}
H2-C12OOH
{
ThermDiff_1	0.150E-01	;
ThermDiff_2	0.839E-03	;
ThermDiff_3	-0.423E-06	;
ThermDiff_4	0.677E-10	;
}
H2-O2C12H24OOH
{
ThermDiff_1	-0.613E-02	;
ThermDiff_2	0.862E-03	;
ThermDiff_3	-0.430E-06	;
ThermDiff_4	0.685E-10	;
}
H2-OC12H23OOH
{
ThermDiff_1	0.465E-02	;
ThermDiff_2	0.850E-03	;
ThermDiff_3	-0.426E-06	;
ThermDiff_4	0.681E-10	;
}
